geometry optimzed in LAMMPS
_audit_creation_date              2020-12-01 
_audit_creation_method            'lammps2cif' 
_symmetry_space_group_name_H-M    'P1' 
_symmetry_Int_Tables_number       1 
_symmetry_cell_setting            triclinic 
loop_ 
_symmetry_equiv_pos_as_xyz 
  x,y,z 
_cell_length_a                    37.28205556 
_cell_length_b                    36.211997108145596 
_cell_length_c                    25.33592215285869 
_cell_angle_alpha                 88.96306608207632 
_cell_angle_beta                  102.9256222851992 
_cell_angle_gamma                 91.07217172213807 
loop_ 
_atom_site_label 
_atom_site_type_symbol 
_atom_site_fract_x 
_atom_site_fract_y 
_atom_site_fract_z 
_atom_site_charge 
C1          C  0.00673043  0.01165964  0.47365668     0.30700
C2          C  0.97965064  0.33578881  0.36293516     0.30700
C3          C  0.97370947  0.03599132  0.44909373    -0.05500
C4          C  0.03407482  0.02064888  0.43516701    -0.06300
C5          C  0.99121731  0.30558338  0.45222018    -0.06200
C6          C  0.95684919  0.02609471  0.39756471    -0.05500
C7          C  0.01945728  0.34973516  0.37575805    -0.06300
C8          C  0.98527577  0.30024948  0.39660015    -0.06200
C9          C  0.92329319  0.04227565  0.38656918    -0.31600
N10         N  0.92466059  0.07194730  0.41770456     0.14900
C11         C  0.95580860  0.06813692  0.45803950    -0.31600
H12         H  0.96606538  0.08832589  0.48895454     0.16900
C13         C  0.04652591  0.33645282  0.35195266    -0.30500
N14         N  0.07766047  0.33120099  0.39002543     0.13700
C15         C  0.07185191  0.34183583  0.43848611    -0.30500
C16         C  0.96712155  0.26854802  0.38515688    -0.30800
N17         N  0.94911755  0.26086759  0.42331417     0.14200
H18         H  0.96482520  0.25243023  0.34936531     0.16800
C19         C  0.96357650  0.28253415  0.46645954    -0.30800
H20         H  0.95378369  0.28276459  0.50343761     0.16800
H21         H  0.09218805  0.33969349  0.47616385     0.16800
H22         H  0.90094846  0.03748641  0.35253509     0.16900
H23         H  0.04262862  0.32773593  0.31038038     0.16800
O24         O  0.96086452  0.12959289  0.26917784    -0.80200
O25         O  0.80716231  0.12954685  0.31522493    -0.64900
O26         O  0.89596183  0.14842906  0.27308431    -1.11500
C27         C  0.92016978  0.23462875  0.40780807     1.06700
O28         O  0.79811331  0.19116280  0.31777956    -0.78100
O29         O  0.84485090  0.23515228  0.27936827    -0.65700
Ni30       Ni  0.92068180  0.10561689  0.29033496     1.34900
C31         C  0.87377120  0.24583351  0.26476691     0.85400
O32         O  0.84567743  0.08895242  0.25008780    -0.78600
O33         O  0.89820147  0.08824818  0.22130655    -0.88900
C34         C  0.78623321  0.15772317  0.31097228     0.85000
O35         O  0.93610870  0.12032782  0.36300698    -0.67100
O36         O  0.88707428  0.24515352  0.38716240    -0.86400
C37         C  0.91246574  0.10378676  0.38435682     0.85800
C38         C  0.86849421  0.07194503  0.22636604     1.07400
H39         H  0.87191628  0.16455155  0.38216995     0.39200
O40         O  0.86830026  0.17443717  0.34574042    -1.09100
O41         O  0.90369875  0.22764252  0.28369315    -0.65700
Ni42       Ni  0.91448932  0.18048513  0.32984579     1.26300
O43         O  0.87834107  0.10392663  0.35821363    -0.66000
O44         O  0.93159649  0.20423265  0.39592103    -0.78200
C45         C  0.97549607  0.16089446  0.28477906     0.85200
O46         O  0.96229714  0.18305958  0.31381785    -0.65400
Ni47       Ni  0.84254635  0.21706624  0.35037491     1.27400
Ni48       Ni  0.85342599  0.13507587  0.29579850     1.26100
H49         H  0.89245350  0.15830487  0.23657565     0.39700
C50         C  0.87233212  0.28628094  0.23729961     0.30700
C51         C  0.86798392  0.02895143  0.22335474     0.30700
C52         C  0.90311434  0.30951929  0.27104037    -0.05500
C53         C  0.87552413  0.30124234  0.17903322    -0.06300
C54         C  0.83590899  0.30493546  0.24327670    -0.06200
C55         C  0.90143520  0.01382469  0.26482722    -0.05500
C56         C  0.87170097  0.00756943  0.17223298    -0.06300
C57         C  0.83472943  0.00992755  0.23825883    -0.06200
C58         C  0.93771337  0.02661697  0.28243301    -0.31600
N59         N  0.96019716  0.33291222  0.30427572     0.14900
C60         C  0.94014102  0.30242628  0.28573756    -0.31600
H61         H  0.95233298  0.27786028  0.27422833     0.16900
C62         C  0.89287411  0.01988028  0.13731118    -0.30500
N63         N  0.91181252  0.32497310  0.12428443     0.13700
C64         C  0.90303625  0.29403573  0.15083397    -0.30500
C65         C  0.79803796  0.01907915  0.22337964    -0.30800
N66         N  0.77616287  0.32167681  0.21993942     0.14200
H67         H  0.78784702  0.04643351  0.21114865     0.16800
C68         C  0.79904088  0.29244560  0.22974611    -0.30800
H69         H  0.78964341  0.26412734  0.22290416     0.16800
H70         H  0.92010267  0.26979952  0.15777738     0.16800
H71         H  0.94662602  0.05508633  0.28463481     0.16900
H72         H  0.89963922  0.04865731  0.13153205     0.16800
C73         C  0.01915870  0.01065419  0.03148609     0.30700
C74         C  0.04516189  0.33479159  0.13933343     0.30700
C75         C  0.05262817  0.03552837  0.05590550    -0.05500
C76         C  0.99153355  0.01877982  0.06911521    -0.06300
C77         C  0.03425036  0.30598379  0.05070076    -0.06200
C78         C  0.06875818  0.02583109  0.10827584    -0.05500
C79         C  0.00579462  0.34864842  0.12546921    -0.06300
C80         C  0.03932185  0.29950206  0.10622371    -0.06200
C81         C  0.10277587  0.04254390  0.11945762    -0.31600
N82         N  0.10299690  0.07167585  0.08617809     0.14900
C83         C  0.07213352  0.06726249  0.04529508    -0.31600
H84         H  0.06312399  0.08686148  0.01248191     0.16900
C85         C  0.97800755  0.33648811  0.14989159    -0.30500
N86         N  0.94652995  0.33214356  0.11209796     0.13700
C87         C  0.95324517  0.34134588  0.06288055    -0.30500
C88         C  0.05805205  0.26835375  0.11806478    -0.30800
N89         N  0.07672877  0.26263148  0.08064876     0.14200
H90         H  0.05991815  0.25107733  0.15343059     0.16800
C91         C  0.06230288  0.28454515  0.03722552    -0.30800
H92         H  0.07249551  0.28616449  0.00059676     0.16800
H93         H  0.93405325  0.00618526  0.02616843     0.16800
H94         H  0.12458778  0.03842713  0.15437337     0.16900
H95         H  0.98133279  0.32819199  0.19195091     0.16800
O96         O  0.06289921  0.12445029  0.22722152    -0.80200
O97         O  0.22101285  0.13567780  0.19166454    -0.64900
O98         O  0.12892229  0.14745296  0.22790831    -1.11500
C99         C  0.10605404  0.23748149  0.09635905     1.06700
O100        O  0.22863110  0.19807360  0.18996906    -0.78100
O101        O  0.17828019  0.23351577  0.22958855    -0.65700
Ni102      Ni  0.10513434  0.10395017  0.20974178     1.34900
C103        C  0.14864071  0.24421920  0.24034321     0.85400
O104        O  0.17966772  0.08931927  0.25313413    -0.78600
O105        O  0.12627094  0.08624341  0.27960695    -0.88900
C106        C  0.24144055  0.16523556  0.19510353     0.85000
O107        O  0.09134913  0.12002189  0.13704593    -0.67100
O108        O  0.13839565  0.24906520  0.12064593    -0.86400
C109        C  0.11529000  0.10428937  0.11724357     0.85800
C110        C  0.15611272  0.07090841  0.27588681     1.07400
H111        H  0.15624822  0.16864222  0.12135334     0.39200
O112        O  0.15846360  0.17732472  0.15777192    -1.09100
O113        O  0.11892521  0.22649264  0.21735103    -0.65700
Ni114      Ni  0.11107763  0.18014325  0.17071744     1.26300
O115        O  0.14938082  0.10596084  0.14401585    -0.66000
O116        O  0.09508895  0.20549166  0.10476032    -0.78200
C117        C  0.04792817  0.15496608  0.20939795     0.85200
O118        O  0.06241942  0.17915182  0.18318175    -0.65400
Ni119      Ni  0.18333016  0.22216419  0.15776122     1.27400
Ni120      Ni  0.17279417  0.13697848  0.20770041     1.26100
H121        H  0.13133184  0.15651278  0.26426190     0.39700
C122        C  0.14985088  0.28449017  0.26651069     0.30700
C123        C  0.15600401  0.02762132  0.28034870     0.30700
C124        C  0.11945436  0.30770031  0.23259638    -0.05500
C125        C  0.14728546  0.29887288  0.32459600    -0.06300
C126        C  0.18635509  0.30376349  0.25976465    -0.06200
C127        C  0.12194040  0.01208615  0.24043146    -0.05500
C128        C  0.15253758  0.00607035  0.33261842    -0.06300
C129        C  0.18821362  0.00876730  0.26521552    -0.06200
C130        C  0.08613420  0.02486209  0.22281541    -0.31600
N131        N  0.06325865  0.33108137  0.19835919     0.14900
C132        C  0.08229663  0.30047931  0.21788040    -0.31600
H133        H  0.06928583  0.27537838  0.22853210     0.16900
C134        C  0.13242092  0.01862817  0.36762507    -0.30500
N135        N  0.11195923  0.32293132  0.37851138     0.13700
C136        C  0.11912392  0.29203058  0.35249351    -0.30500
C137        C  0.22489282  0.01835448  0.27827581    -0.30800
N138        N  0.24595523  0.32099701  0.28122759     0.14200
H139        H  0.23583514  0.04597212  0.28753703     0.16800
C140        C  0.22285830  0.29154061  0.27342868    -0.30800
H141        H  0.23216002  0.26340327  0.28037663     0.16800
H142        H  0.10063600  0.26833457  0.34551632     0.16800
H143        H  0.07801064  0.05328221  0.21919604     0.16900
H144        H  0.12700683  0.04749605  0.37246347     0.16800
C145        C  0.52529621  0.16399221  0.03001365     0.30700
C146        C  0.55018787  0.14843334  0.13499831     0.30700
C147        C  0.56307550  0.18135571  0.05398860    -0.05500
C148        C  0.50096140  0.17873941  0.06768850    -0.06300
C149        C  0.53161687  0.12144872  0.04646502    -0.06200
C150        C  0.57871788  0.16641687  0.10380121    -0.05500
C151        C  0.51567256  0.17208457  0.12362277    -0.06300
C152        C  0.53318352  0.11456056  0.10108362    -0.06200
C153        C  0.61125550  0.18514749  0.12148301    -0.31600
N154        N  0.60841815  0.21915199  0.09964018     0.14900
C155        C  0.57839173  0.21716164  0.05706907    -0.31600
H156        H  0.56467306  0.24106275  0.03610032     0.16900
C157        C  0.48582018  0.16506406  0.14702372    -0.30500
N158        N  0.45433196  0.16667223  0.10867491     0.13700
C159        C  0.46279401  0.17583838  0.06091179    -0.30500
C160        C  0.54333282  0.07953794  0.11121383    -0.30800
N161        N  0.56716443  0.07162431  0.08050756     0.14200
H162        H  0.54219263  0.06594376  0.14901341     0.16800
C163        C  0.55901177  0.09625976  0.03814853    -0.30800
H164        H  0.57647633  0.10020137  0.00997106     0.16800
H165        H  0.44271831  0.17691281  0.02287762     0.16800
H166        H  0.63268720  0.17810685  0.15567220     0.16900
H167        H  0.48737984  0.15447020  0.18769729     0.16800
O168        O  0.55071484  0.30400271  0.19300029    -0.80200
O169        O  0.71660665  0.29199016  0.20217742    -0.64900
O170        O  0.62482607  0.30238396  0.24385486    -1.11500
C171        C  0.60211860  0.05753593  0.11136127     1.06700
O172        O  0.72213794  0.02075757  0.19484978    -0.78100
O173        O  0.67093938  0.07249635  0.20113030    -0.65700
Ni174      Ni  0.58505474  0.26994359  0.23421176     1.34900
C175        C  0.65994126  0.07124845  0.24601781     0.85400
O176        O  0.67541741  0.24617721  0.26293045    -0.78600
O177        O  0.61774269  0.23535903  0.27665049    -0.90100
C178        C  0.73623605  0.32216116  0.20375116     0.85000
O179        O  0.58935995  0.25121475  0.16569155    -0.67100
O180        O  0.63131874  0.05231197  0.09415509    -0.86400
C181        C  0.61498399  0.24685449  0.14086932     0.85800
C182        C  0.65030833  0.22508522  0.27714458     1.07400
H183        H  0.63899728  0.98793143  0.13850188     0.39200
O184        O  0.65180003  0.99866048  0.17216986    -1.09100
O185        O  0.64476279  0.04217438  0.26005066    -0.65700
Ni186      Ni  0.61428506  0.01220115  0.20447624     1.26300
O187        O  0.64753698  0.25957198  0.15860930    -0.66000
O188        O  0.60398525  0.05385535  0.16115398    -0.78200
C189        C  0.54601336  0.33469751  0.21298273     0.85200
O190        O  0.57474075  0.02265041  0.23572524    -0.65400
Ni191      Ni  0.67737112  0.03695764  0.14675379     1.27400
Ni192      Ni  0.66785039  0.29176933  0.21920364     1.26100
H193        H  0.63182498  0.30853770  0.28174550     0.39700
C194        C  0.65708310  0.10890374  0.27170507     0.30700
C195        C  0.65424111  0.18333219  0.28281248     0.30700
C196        C  0.62464133  0.12797760  0.23548403    -0.05500
C197        C  0.65174941  0.12138404  0.32887489    -0.06300
C198        C  0.69082448  0.13135221  0.26498528    -0.06200
C199        C  0.62179101  0.16495153  0.24264313    -0.05500
C200        C  0.65294824  0.16122922  0.33517024    -0.06300
C201        C  0.68877440  0.16940457  0.26848982    -0.06200
C202        C  0.58491524  0.17323238  0.22057852    -0.31600
N203        N  0.56716060  0.14369394  0.19360724     0.14900
C204        C  0.58997349  0.11552071  0.21143602    -0.31600
H205        H  0.57982820  0.08861794  0.21916820     0.16900
C206        C  0.62966022  0.16991677  0.36777030    -0.30500
N207        N  0.61128106  0.13943693  0.37808693     0.13700
C208        C  0.62352814  0.11021556  0.35424912    -0.30500
C209        C  0.72408769  0.18193156  0.28733366    -0.30800
N210        N  0.74739977  0.15334386  0.29373629     0.14200
H211        H  0.73204713  0.20970854  0.30074267     0.16800
C212        C  0.72752147  0.12205870  0.28128998    -0.30800
H213        H  0.73844142  0.09445186  0.28810652     0.16800
H214        H  0.60842335  0.08432187  0.34669592     0.16800
H215        H  0.57249981  0.19996711  0.21826951     0.16900
H216        H  0.62000731  0.19750880  0.37188822     0.16800
C217        C  0.50393933  0.16824895  0.46469616     0.30700
C218        C  0.47689916  0.16608992  0.35624686     0.30700
C219        C  0.48603389  0.20611876  0.43777255    -0.05500
C220        C  0.53186508  0.15971310  0.42945666    -0.06300
C221        C  0.47298097  0.13845012  0.44409289    -0.06200
C222        C  0.47118779  0.20248517  0.38171311    -0.05500
C223        C  0.51741555  0.15764811  0.37442735    -0.06300
C224        C  0.45775192  0.14130254  0.38992142    -0.06200
C225        C  0.43822461  0.22022549  0.37090480    -0.31600
N226        N  0.43483440  0.24264120  0.40997832     0.14900
C227        C  0.46395414  0.23434640  0.45240692    -0.31600
H228        H  0.46779541  0.24622300  0.49217995     0.16900
C229        C  0.54467256  0.14647727  0.34971055    -0.30500
N230        N  0.57589862  0.14211497  0.38855224     0.13700
C231        C  0.56900150  0.15191865  0.43675369    -0.30500
C232        C  0.42084770  0.13566459  0.38558423    -0.30800
N233        N  0.41546262  0.11345365  0.42565615     0.14200
H234        H  0.39908575  0.14276246  0.35140887     0.16800
C235        C  0.44754510  0.11654788  0.46426104    -0.30800
H236        H  0.45078580  0.10622723  0.50535680     0.16800
H237        H  0.58988059  0.15387610  0.47386389     0.16800
H238        H  0.41615797  0.21719972  0.33591439     0.16900
H239        H  0.54245166  0.14315132  0.30672127     0.16800
O240        O  0.46492604  0.30808301  0.27350838    -0.80200
O241        O  0.30666491  0.29490614  0.30572259    -0.64900
O242        O  0.39870046  0.31784819  0.27336170    -1.11500
C243        C  0.39936156  0.08019471  0.40050514     1.06700
O244        O  0.29857848  0.02027631  0.27888773    -0.78100
O245        O  0.34332715  0.07848752  0.27498158    -0.65700
Ni246      Ni  0.42760847  0.27894844  0.29527698     1.34900
C247        C  0.37085059  0.08338504  0.25340780     0.85400
O248        O  0.35313937  0.25614931  0.24892783    -0.78600
O249        O  0.40805728  0.25756236  0.22627039    -0.88900
C250        C  0.28538468  0.32256477  0.28932236     0.85000
O251        O  0.43866799  0.29787816  0.36618497    -0.67100
O252        O  0.36402442  0.07795842  0.38652317    -0.86400
C253        C  0.41768168  0.27643295  0.38604992     0.85800
C254        C  0.37711381  0.24113552  0.22533560     1.07400
H255        H  0.36865358  0.00411759  0.37584904     0.39200
O256        O  0.36486951  0.01219992  0.33849191    -1.09100
O257        O  0.39807486  0.06156541  0.26650850    -0.65700
Ni258      Ni  0.41106656  0.02359766  0.32531555     1.26300
O259        O  0.38308345  0.27410554  0.35992268    -0.66000
O260        O  0.42077678  0.06009386  0.38033858    -0.78200
C261        C  0.47461560  0.34186868  0.28416506     0.85200
O262        O  0.45921165  0.03009246  0.31354041    -0.65400
Ni263      Ni  0.33072244  0.04897674  0.33205629     1.27400
Ni264      Ni  0.35598331  0.30219090  0.29289779     1.26100
H265        H  0.39507411  0.32512956  0.23565782     0.39700
C266        C  0.37317902  0.12226167  0.22366385     0.30700
C267        C  0.37423837  0.19884029  0.21376796     0.30700
C268        C  0.40569312  0.14272656  0.25746120    -0.05500
C269        C  0.37787076  0.13805467  0.16610220    -0.06300
C270        C  0.33875030  0.14326384  0.22977299    -0.06200
C271        C  0.40683645  0.18056396  0.25191049    -0.05500
C272        C  0.37593402  0.17857151  0.16069789    -0.06300
C273        C  0.34003448  0.18142121  0.22767483    -0.06200
C274        C  0.44364204  0.19050944  0.26865140    -0.31600
N275        N  0.46184168  0.16223087  0.29733748     0.14900
C276        C  0.44115192  0.13196631  0.27962483    -0.31600
H277        H  0.44951528  0.10417037  0.29202710     0.16900
C278        C  0.39944297  0.19000747  0.12877369    -0.30500
N279        N  0.41857070  0.16119838  0.11781925     0.13700
C280        C  0.40648910  0.13008787  0.14031414    -0.30500
C281        C  0.30398090  0.19272318  0.21315323    -0.30800
N282        N  0.28088040  0.16303617  0.20810199     0.14200
H283        H  0.29518511  0.22072733  0.20249427     0.16800
C284        C  0.30170780  0.13264852  0.21591241    -0.30800
H285        H  0.29077179  0.10488490  0.20815789     0.16800
H286        H  0.42205457  0.10484175  0.14707231     0.16800
H287        H  0.45501664  0.21819803  0.26983199     0.16900
H288        H  0.40876530  0.21833908  0.12605187     0.16800
C289        C  0.50960386  0.34389009  0.21726881    -0.15800
C290        C  0.50540210  0.35644312  0.26436873    -0.30900
H291        H  0.48693732  0.32952276  0.19043056     0.13300
H292        H  0.52928963  0.03597221  0.29843528     0.13800
C293        C  0.01209476  0.16165389  0.21889074    -0.15800
C294        C  0.00902756  0.17120100  0.26811902    -0.30900
H295        H  0.98853097  0.15086176  0.18954384     0.13300
H296        H  0.03237089  0.18214189  0.29770901     0.13800
C297        C  0.00355485  0.01037472  0.96776704     0.30700
C298        C  0.97315306  0.33435713  0.86094016     0.30700
C299        C  0.97014524  0.03414705  0.94311165    -0.05500
C300        C  0.03058912  0.01983069  0.92975141    -0.06300
C301        C  0.98937643  0.30403321  0.94862389    -0.06200
C302        C  0.95275635  0.02266196  0.89233852    -0.05500
C303        C  0.01115126  0.35390066  0.87161123    -0.06300
C304        C  0.98660813  0.29948149  0.89423692    -0.06200
C305        C  0.92155694  0.04220424  0.87774834    -0.31600
N306        N  0.92699006  0.07454565  0.90272405     0.14900
C307        C  0.95793277  0.07064964  0.94334781    -0.31600
H308        H  0.97231421  0.09298343  0.96748438     0.16900
C309        C  0.03942564  0.34235202  0.84790816    -0.30500
N310        N  0.07056338  0.33740248  0.88636193     0.13700
C311        C  0.06425536  0.34788216  0.93443703    -0.30500
C312        C  0.97745585  0.26487032  0.88279627    -0.30800
N313        N  0.95471836  0.25399702  0.91418435     0.14200
H314        H  0.98132152  0.25163626  0.84664433     0.16800
C315        C  0.96183659  0.27793327  0.95681685    -0.30800
H316        H  0.94556955  0.27943433  0.98704536     0.16800
H317        H  0.08425132  0.34504846  0.97233529     0.16800
H318        H  0.89882393  0.03712466  0.84437396     0.16900
H319        H  0.03587727  0.33293133  0.80672179     0.16800
O320        O  0.95246749  0.12617338  0.73643221    -0.80200
O321        O  0.80698768  0.12895955  0.80894818    -0.64900
O322        O  0.88894939  0.14334109  0.74971093    -1.11500
C323        C  0.92400627  0.23152911  0.88646163     1.06700
O324        O  0.79985802  0.19105445  0.80579121    -0.78100
O325        O  0.84930294  0.24515085  0.78906137    -0.65700
Ni326      Ni  0.91662173  0.10247764  0.76853827     1.34900
C327        C  0.86705717  0.24703061  0.75126724     0.85400
O328        O  0.84137467  0.08386319  0.74037515    -0.78600
O329        O  0.89103080  0.08280470  0.70371579    -0.88900
C330        C  0.78668938  0.15779627  0.80164237     0.85000
O331        O  0.93594729  0.11959040  0.83965331    -0.67100
O332        O  0.89095005  0.23360482  0.89347951    -0.86400
C333        C  0.91392624  0.10440073  0.86583227     0.85800
C334        C  0.86295010  0.06653457  0.71435816     1.07400
H335        H  0.88004057  0.16401864  0.86255404     0.39200
O336        O  0.86962688  0.17322648  0.82665690    -1.09100
O337        O  0.88868458  0.22118845  0.74498560    -0.65700
Ni338      Ni  0.90967290  0.18077751  0.79567428     1.26300
O339        O  0.87915501  0.10340200  0.84340816    -0.66000
O340        O  0.93157833  0.21336617  0.84826518    -0.78200
C341        C  0.96281144  0.15997105  0.73824583     0.85200
O342        O  0.95033757  0.18492637  0.76345843    -0.65400
Ni343      Ni  0.84506401  0.21212649  0.84779056     1.27400
Ni344      Ni  0.85063330  0.13192813  0.78170728     1.26100
H345        H  0.88172944  0.15013248  0.71181453     0.39700
C346        C  0.86681064  0.28608236  0.72386930     0.30700
C347        C  0.86447534  0.02395946  0.71467549     0.30700
C348        C  0.89492697  0.30908102  0.76298287    -0.05500
C349        C  0.87577978  0.30084178  0.66861764    -0.06300
C350        C  0.82978061  0.30428892  0.72412321    -0.06200
C351        C  0.89793683  0.01038327  0.75804055    -0.05500
C352        C  0.86960132  0.00188574  0.66481972    -0.06300
C353        C  0.83139876  0.00520145  0.72911744    -0.06200
C354        C  0.93429933  0.02348039  0.77531008    -0.31600
N355        N  0.95184778  0.32963424  0.80354544     0.14900
C356        C  0.92979739  0.29964493  0.78893225    -0.31600
H357        H  0.93919216  0.27203635  0.78800168     0.16900
C358        C  0.89196868  0.01412902  0.63149412    -0.30500
N359        N  0.91751717  0.32602900  0.62363900     0.13700
C360        C  0.90747062  0.29481300  0.64835904    -0.30500
C361        C  0.79500762  0.01465757  0.71358542    -0.30800
N362        N  0.77087465  0.32090079  0.70248704     0.14200
H363        H  0.78508583  0.04196698  0.70047345     0.16800
C364        C  0.79343965  0.29144839  0.71318646    -0.30800
H365        H  0.78426952  0.26286775  0.71041278     0.16800
H366        H  0.92512424  0.27117341  0.65883842     0.16800
H367        H  0.94299861  0.05198697  0.77559789     0.16900
H368        H  0.89776059  0.04292237  0.62418539     0.16800
C369        C  0.02226879  0.01191958  0.53722758     0.30700
C370        C  0.05115054  0.33468887  0.64236548     0.30700
C371        C  0.05434746  0.03816911  0.56266145    -0.05500
C372        C  0.99386512  0.01828397  0.57416034    -0.06300
C373        C  0.03749133  0.30476401  0.55484703    -0.06200
C374        C  0.07030544  0.02825021  0.61493664    -0.05500
C375        C  0.01247555  0.35099141  0.62889916    -0.06300
C376        C  0.04197265  0.29889129  0.61054461    -0.06200
C377        C  0.10436800  0.04459782  0.62605470    -0.31600
N378        N  0.10416313  0.07467901  0.59468097     0.14900
C379        C  0.07333928  0.07068163  0.55353905    -0.31600
H380        H  0.06438330  0.09062764  0.52118392     0.16900
C381        C  0.98393611  0.33887468  0.65252569    -0.30500
N382        N  0.95275191  0.33449646  0.61396785     0.13700
C383        C  0.95998343  0.34457270  0.56559033    -0.30500
C384        C  0.05892680  0.26684466  0.62307231    -0.30800
N385        N  0.07863563  0.26044133  0.58711296     0.14200
H386        H  0.06006407  0.25037231  0.65912421     0.16800
C387        C  0.06549205  0.28231650  0.54311052    -0.30800
H388        H  0.07693896  0.28361483  0.50763732     0.16800
H389        H  0.93720889  0.00554155  0.52838619     0.16800
H390        H  0.12671229  0.03928935  0.65982242     0.16900
H391        H  0.98684332  0.32989726  0.69424557     0.16800
O392        O  0.07081593  0.12797878  0.74831453    -0.80200
O393        O  0.22403599  0.13580857  0.69864337    -0.64900
O394        O  0.13428632  0.14794916  0.73992297    -1.11500
C395        C  0.10841184  0.23607390  0.60543792     1.06700
O396        O  0.23144071  0.19833083  0.69885826    -0.78100
O397        O  0.18207358  0.23611316  0.73701361    -0.65700
Ni398      Ni  0.10906476  0.10484022  0.72387241     1.34900
C399        C  0.15254859  0.24545218  0.74963766     0.85400
O400        O  0.18372660  0.08911811  0.76158887    -0.78600
O401        O  0.13192023  0.08690177  0.79232869    -0.88900
C402        C  0.24433140  0.16551129  0.70311065     0.85000
O403        O  0.09321375  0.12061984  0.65101323    -0.67100
O404        O  0.14092853  0.24840645  0.62771643    -0.86400
C405        C  0.11666621  0.10609079  0.62845849     0.85800
C406        C  0.16068302  0.07098632  0.78566232     1.07400
H407        H  0.15888743  0.16891928  0.63112796     0.39200
O408        O  0.16182361  0.17752644  0.66771982    -1.09100
O409        O  0.12322163  0.22667460  0.72856602    -0.65700
Ni410      Ni  0.11532734  0.18024028  0.68281208     1.26300
O411        O  0.15116798  0.10722386  0.65359587    -0.66000
O412        O  0.09774531  0.20459946  0.61686273    -0.78200
C413        C  0.05680866  0.15904111  0.73193212     0.85200
O414        O  0.06815056  0.18025236  0.69853958    -0.65400
Ni415      Ni  0.18626291  0.22224778  0.66569968     1.27400
Ni416      Ni  0.17671908  0.13711854  0.71707404     1.26100
H417        H  0.13799326  0.15746660  0.77622069     0.39700
C418        C  0.15306877  0.28519662  0.77711722     0.30700
C419        C  0.15925882  0.02777764  0.78807980     0.30700
C420        C  0.12552632  0.30876188  0.73864165    -0.05500
C421        C  0.14513592  0.30035591  0.83242199    -0.06300
C422        C  0.19110679  0.30362781  0.77707807    -0.06200
C423        C  0.12542937  0.01316772  0.74637303    -0.05500
C424        C  0.15434909  0.00570468  0.83927654    -0.06300
C425        C  0.19172451  0.00899221  0.77392576    -0.06200
C426        C  0.08948506  0.02603018  0.72939093    -0.31600
N427        N  0.06961214  0.33144705  0.70121694     0.14900
C428        C  0.08881116  0.30105432  0.72028748    -0.31600
H429        H  0.07578798  0.27641407  0.73232548     0.16900
C430        C  0.13232112  0.01795453  0.87187880    -0.30500
N431        N  0.10513446  0.32728712  0.87703185     0.13700
C432        C  0.11313182  0.29561271  0.85335178    -0.30500
C433        C  0.22838881  0.01854352  0.78763406    -0.30800
N434        N  0.25060099  0.32032780  0.79890300     0.14200
H435        H  0.23934175  0.04606218  0.79771341     0.16800
C436        C  0.22732733  0.29090822  0.79083413    -0.30800
H437        H  0.23626591  0.26256413  0.79580054     0.16800
H438        H  0.09393164  0.27262777  0.84386442     0.16800
H439        H  0.08146432  0.05448607  0.72748511     0.16900
H440        H  0.12701476  0.04676534  0.87727950     0.16800
C441        C  0.52074048  0.16366936  0.52669383     0.30700
C442        C  0.54799363  0.14848001  0.63133789     0.30700
C443        C  0.55845683  0.18153054  0.54927784    -0.05500
C444        C  0.49739350  0.17835281  0.56557669    -0.06300
C445        C  0.52765696  0.12110682  0.54322644    -0.06200
C446        C  0.57550391  0.16645962  0.59842187    -0.05500
C447        C  0.51341664  0.17212549  0.62130804    -0.06300
C448        C  0.53048859  0.11446551  0.59822869    -0.06200
C449        C  0.60743041  0.18629115  0.61513104    -0.31600
N450        N  0.60297202  0.22035663  0.59384234     0.14900
C451        C  0.57241810  0.21786486  0.55235457    -0.31600
H452        H  0.55755566  0.24148766  0.53238661     0.16900
C453        C  0.48444794  0.16564986  0.64658656    -0.30500
N454        N  0.45230666  0.16710687  0.60957922     0.13700
C455        C  0.45944513  0.17538548  0.56068041    -0.30500
C456        C  0.54101514  0.07954844  0.60842624    -0.30800
N457        N  0.56408238  0.07150733  0.57661110     0.14200
H458        H  0.54066296  0.06613818  0.64661012     0.16800
C459        C  0.55487063  0.09586130  0.53400886    -0.30800
H460        H  0.57130136  0.09920784  0.50439116     0.16800
H461        H  0.43866267  0.17578734  0.52332957     0.16800
H462        H  0.62963234  0.17965552  0.64849731     0.16900
H463        H  0.48695251  0.15558938  0.68773198     0.16800
O464        O  0.54937927  0.30574232  0.69420593    -0.80200
O465        O  0.71185121  0.29170397  0.68889352    -0.64900
O466        O  0.62419405  0.30286520  0.74005879    -1.11500
C467        C  0.59942834  0.05732605  0.60621698     1.06700
O468        O  0.71971685  0.01802554  0.68539119    -0.78100
O469        O  0.67002756  0.07161400  0.69397046    -0.65700
Ni470      Ni  0.58424614  0.27070890  0.73179328     1.34900
C471        C  0.65960295  0.07091167  0.73936535     0.85400
O472        O  0.67449748  0.24645377  0.75457276    -0.78600
O473        O  0.61755694  0.23518732  0.77074929    -0.90100
C474        C  0.73128245  0.32174299  0.68943753     0.85000
O475        O  0.58556052  0.25284115  0.66124532    -0.67100
O476        O  0.62805243  0.05158788  0.58775584    -0.86400
C477        C  0.61037865  0.24799468  0.63506329     0.85800
C478        C  0.65004731  0.22518725  0.77007565     1.07400
H479        H  0.63549853  0.98707486  0.63229004     0.39200
O480        O  0.64900848  0.99775913  0.66558328    -1.09100
O481        O  0.64433786  0.04205890  0.75407897    -0.65700
Ni482      Ni  0.61261471  0.01218047  0.69946178     1.26300
O483        O  0.64319687  0.26001269  0.65164607    -0.66000
O484        O  0.60233563  0.05391835  0.65624653    -0.78200
C485        C  0.54595467  0.33639325  0.71533603     0.85200
O486        O  0.57409927  0.02329048  0.73223389    -0.65400
Ni487      Ni  0.67460701  0.03544401  0.63896620     1.27400
Ni488      Ni  0.66529683  0.29202541  0.71111800     1.26100
H489        H  0.63250460  0.30872365  0.77793819     0.39700
C490        C  0.65723809  0.10892905  0.76495410     0.30700
C491        C  0.65444211  0.18347343  0.77592749     0.30700
C492        C  0.62433095  0.12795906  0.72951299    -0.05500
C493        C  0.65282355  0.12161441  0.82267293    -0.06300
C494        C  0.69074938  0.13154421  0.75691781    -0.06200
C495        C  0.62158661  0.16493383  0.73671402    -0.05500
C496        C  0.65394478  0.16142403  0.82868619    -0.06300
C497        C  0.68873227  0.16964510  0.76041231    -0.06200
C498        C  0.58450025  0.17322012  0.71596147    -0.31600
N499        N  0.56630985  0.14373025  0.68956412     0.14900
C500        C  0.58936093  0.11557019  0.70664650    -0.31600
H501        H  0.57937708  0.08880835  0.71536511     0.16900
C502        C  0.63173451  0.17011275  0.86302090    -0.30500
N503        N  0.61424099  0.13953340  0.87545012     0.13700
C504        C  0.62571265  0.11038491  0.85032664    -0.30500
C505        C  0.72428445  0.18241511  0.77780433    -0.30800
N506        N  0.74767528  0.15388809  0.78372502     0.14200
H507        H  0.73237639  0.21020189  0.79102303     0.16800
C508        C  0.72761358  0.12251777  0.77216463    -0.30800
H509        H  0.73858661  0.09493974  0.77912611     0.16800
H510        H  0.61075699  0.08434871  0.84396630     0.16800
H511        H  0.57214701  0.19996127  0.71386707     0.16900
H512        H  0.62213251  0.19766777  0.86752559     0.16800
C513        C  0.50901731  0.16835510  0.96795611     0.30700
C514        C  0.48061227  0.16645296  0.85989512     0.30700
C515        C  0.49126029  0.20635722  0.94159404    -0.05500
C516        C  0.53640874  0.15932906  0.93185897    -0.06300
C517        C  0.47754018  0.13894915  0.94799015    -0.06200
C518        C  0.47585993  0.20303146  0.88564732    -0.05500
C519        C  0.52108015  0.15747165  0.87699279    -0.06300
C520        C  0.46163460  0.14200147  0.89418609    -0.06200
C521        C  0.44341092  0.22166354  0.87552906    -0.31600
N522        N  0.44069986  0.24368366  0.91541621     0.14900
C523        C  0.46989742  0.23479602  0.95728394    -0.31600
H524        H  0.47434237  0.24651453  0.99722929     0.16900
C525        C  0.54760935  0.14644990  0.85083997    -0.30500
N526        N  0.57944905  0.14197319  0.88834265     0.13700
C527        C  0.57351076  0.15139414  0.93749013    -0.30500
C528        C  0.42481996  0.13652505  0.89103576    -0.30800
N529        N  0.42004811  0.11404868  0.93122590     0.14200
H530        H  0.40268574  0.14372244  0.85743674     0.16800
C531        C  0.45258618  0.11682635  0.96885095    -0.30800
H532        H  0.45645064  0.10610163  0.00982198     0.16800
H533        H  0.59490143  0.15332130  0.97405665     0.16800
H534        H  0.42114221  0.21946200  0.84068515     0.16900
H535        H  0.54452194  0.14351710  0.80760333     0.16800
O536        O  0.46718282  0.30987653  0.77885297    -0.80200
O537        O  0.31130121  0.29458368  0.81862116    -0.64900
O538        O  0.40134972  0.31910396  0.78121957    -1.11500
C539        C  0.40378087  0.08081256  0.90637353     1.06700
O540        O  0.30194046  0.02087050  0.78750563    -0.78100
O541        O  0.34666702  0.07943415  0.78361094    -0.65700
Ni542      Ni  0.43077232  0.28042524  0.80226769     1.34900
C543        C  0.37328913  0.08404910  0.76001709     0.85400
O544        O  0.35614675  0.25680150  0.75857959    -0.78600
O545        O  0.41033956  0.25856787  0.73380005    -0.88900
C546        C  0.28961736  0.32198384  0.80333381     0.85000
O547        O  0.44288369  0.29961403  0.87302301    -0.67100
O548        O  0.36845767  0.07796257  0.89467189    -0.86400
C549        C  0.42279020  0.27755905  0.89352075     0.85800
C550        C  0.37959102  0.24197691  0.73381501     1.07400
H551        H  0.37342152  0.00469303  0.88292459     0.39200
O552        O  0.36886775  0.01272923  0.84548634    -1.09100
O553        O  0.40020011  0.06176903  0.77100448    -0.65700
Ni554      Ni  0.41443565  0.02436621  0.83030018     1.26300
O555        O  0.38795796  0.27498077  0.86884782    -0.66000
O556        O  0.42469560  0.06129128  0.88444712    -0.78200
C557        C  0.47700768  0.34356214  0.79000293     0.85200
O558        O  0.46192927  0.03118978  0.81657109    -0.65400
Ni559      Ni  0.33465236  0.04928858  0.84049373     1.27400
Ni560      Ni  0.35948643  0.30284703  0.80275657     1.26100
H561        H  0.39702030  0.32650853  0.74353760     0.39700
C562        C  0.37529868  0.12302258  0.73042257     0.30700
C563        C  0.37643341  0.19969355  0.72146383     0.30700
C564        C  0.40837832  0.14325710  0.76306214    -0.05500
C565        C  0.37839904  0.13913442  0.67235153    -0.06300
C566        C  0.34144486  0.14394890  0.73846479    -0.06200
C567        C  0.40955220  0.18110916  0.75785331    -0.05500
C568        C  0.37671907  0.17970089  0.66763212    -0.06300
C569        C  0.34272987  0.18216979  0.73681974    -0.06200
C570        C  0.44646099  0.19085461  0.77296800    -0.31600
N571        N  0.46488274  0.16254233  0.80117918     0.14900
C572        C  0.44390845  0.13232541  0.78405197    -0.31600
H573        H  0.45220573  0.10448628  0.79629608     0.16900
C574        C  0.39916938  0.19108836  0.63412451    -0.30500
N575        N  0.41717341  0.16208476  0.62102866     0.13700
C576        C  0.40562307  0.13099113  0.64414006    -0.30500
C577        C  0.30664218  0.19329747  0.72231971    -0.30800
N578        N  0.28368043  0.16350673  0.71668675     0.14200
H579        H  0.29776416  0.22127939  0.71166356     0.16800
C580        C  0.30451416  0.13321419  0.72439171    -0.30800
H581        H  0.29370712  0.10545314  0.71603821     0.16800
H582        H  0.42089607  0.10555567  0.64945070     0.16800
H583        H  0.45794707  0.21847533  0.77350430     0.16900
H584        H  0.40875875  0.21932162  0.63133093     0.16800
C585        C  0.51016443  0.34655255  0.72114212    -0.15800
C586        C  0.50714484  0.35855583  0.76908496    -0.30900
H587        H  0.48683911  0.33288845  0.69464237     0.13300
H588        H  0.53129461  0.03703409  0.79783202     0.13800
C589        C  0.02544006  0.16986863  0.75069926    -0.15800
C590        C  0.99344894  0.16929177  0.71553015    -0.30900
H591        H  0.02698188  0.16870519  0.79415357     0.13300
H592        H  0.99159273  0.16490397  0.67260978     0.13800
C593        C  0.00798284  0.34492102  0.47103566     0.30700
C594        C  0.97927583  0.66839843  0.36493804     0.30700
C595        C  0.97580038  0.37034364  0.44628625    -0.05500
C596        C  0.03543036  0.35289223  0.43256414    -0.06300
C597        C  0.99088100  0.63860957  0.45439485    -0.06200
C598        C  0.95881832  0.36085537  0.39457372    -0.05500
C599        C  0.01908024  0.68247682  0.37752253    -0.06300
C600        C  0.98495003  0.63297391  0.39896382    -0.06200
C601        C  0.92460865  0.37563942  0.38522135    -0.31600
N602        N  0.92518356  0.40461122  0.41742539     0.14900
C603        C  0.95663119  0.40107570  0.45724404    -0.31600
H604        H  0.96570629  0.42020393  0.49002352     0.16900
C605        C  0.04637142  0.66959635  0.35374952    -0.30500
N606        N  0.07769964  0.66507022  0.39179207     0.13700
C607        C  0.07165130  0.67540649  0.44024323    -0.30500
C608        C  0.96718997  0.60094363  0.38803929    -0.30800
N609        N  0.94938765  0.59312445  0.42647145     0.14200
H610        H  0.96479318  0.58483567  0.35222733     0.16800
C611        C  0.96351711  0.61537132  0.46911406    -0.30800
H612        H  0.95366119  0.61589094  0.50603622     0.16800
H613        H  0.09194179  0.67331209  0.47797335     0.16800
H614        H  0.90185859  0.37024901  0.35199812     0.16900
H615        H  0.04257715  0.66074046  0.31226644     0.16800
O616        O  0.95977869  0.46379539  0.26861306    -0.80200
O617        O  0.80654463  0.46222233  0.31678934    -0.64900
O618        O  0.89515586  0.48184290  0.27438639    -1.11500
C619        C  0.92038893  0.56678930  0.41113332     1.06700
O620        O  0.79763585  0.52373173  0.32152558    -0.78100
O621        O  0.84432848  0.56863977  0.28440203    -0.65700
Ni622      Ni  0.92016516  0.43917439  0.29050795     1.34900
C623        C  0.87304585  0.57885217  0.26879359     0.85400
O624        O  0.84508272  0.42224132  0.25066697    -0.78600
O625        O  0.89741381  0.42207136  0.22136667    -0.88900
C626        C  0.78562719  0.49040811  0.31310088     0.85000
O627        O  0.93577995  0.45360972  0.36330009    -0.67100
O628        O  0.88703980  0.57716695  0.39193253    -0.86400
C629        C  0.91244143  0.43657410  0.38474582     0.85800
C630        C  0.86785565  0.40550194  0.22647680     1.07400
H631        H  0.87189763  0.49660572  0.38447121     0.39200
O632        O  0.86801667  0.50689734  0.34824880    -1.09100
O633        O  0.90288891  0.56047097  0.28659338    -0.65700
Ni634      Ni  0.91406129  0.51333007  0.33173510     1.26300
O635        O  0.87820691  0.43647534  0.35897824    -0.66000
O636        O  0.93169252  0.53661143  0.39814558    -0.78200
C637        C  0.97426636  0.49519831  0.28395850     0.85200
O638        O  0.96152362  0.51671911  0.31437983    -0.65400
Ni639      Ni  0.84232030  0.54929747  0.35477687     1.27400
Ni640      Ni  0.85285693  0.46803507  0.29732433     1.26100
H641        H  0.89145366  0.49208932  0.23806246     0.39700
C642        C  0.87177208  0.61893713  0.24093527     0.30700
C643        C  0.86755130  0.36242992  0.22292167     0.30700
C644        C  0.90259985  0.64219688  0.27433972    -0.05500
C645        C  0.87514382  0.63312916  0.18255008    -0.06300
C646        C  0.83553185  0.63779647  0.24652703    -0.06200
C647        C  0.90141265  0.34735870  0.26361848    -0.05500
C648        C  0.87079635  0.34100449  0.17144910    -0.06300
C649        C  0.83455600  0.34331648  0.23854112    -0.06200
C650        C  0.93770700  0.36038687  0.28018917    -0.31600
N651        N  0.95987517  0.66526668  0.30640155     0.14900
C652        C  0.93953166  0.63483083  0.28875805    -0.31600
H653        H  0.95143045  0.61015695  0.27704006     0.16900
C654        C  0.89199060  0.35301087  0.13633207    -0.30500
N655        N  0.91219263  0.65618472  0.12876651     0.13700
C656        C  0.90310037  0.62551532  0.15545507    -0.30500
C657        C  0.79781173  0.35247092  0.22364432    -0.30800
N658        N  0.77605816  0.65452094  0.22157609     0.14200
H659        H  0.78764316  0.37981686  0.21131277     0.16800
C660        C  0.79877502  0.62528521  0.23244533    -0.30800
H661        H  0.78939902  0.59693953  0.22584827     0.16800
H662        H  0.92020454  0.60132690  0.16339714     0.16800
H663        H  0.94638580  0.38892891  0.28228438     0.16900
H664        H  0.89918938  0.38170213  0.13079893     0.16800
C665        C  0.01803714  0.34518266  0.03098823     0.30700
C666        C  0.04549714  0.66738084  0.14394475     0.30700
C667        C  0.05093299  0.37088576  0.05591179    -0.05500
C668        C  0.99028503  0.35193746  0.06874251    -0.06300
C669        C  0.03440648  0.63814318  0.05555285    -0.06200
C670        C  0.06717808  0.36095009  0.10818488    -0.05500
C671        C  0.00596446  0.68073878  0.13028135    -0.06300
C672        C  0.03998416  0.63192474  0.11123188    -0.06200
C673        C  0.10162963  0.37677646  0.11881360    -0.31600
N674        N  0.10233221  0.40600590  0.08592282     0.14900
C675        C  0.07120904  0.40214074  0.04521070    -0.31600
H676        H  0.06290709  0.42151520  0.01189342     0.16900
C677        C  0.97835468  0.66812967  0.15480878    -0.30500
N678        N  0.94699038  0.66317188  0.11695891     0.13700
C679        C  0.95354747  0.67249576  0.06781881    -0.30500
C680        C  0.05960203  0.60140276  0.12300945    -0.30800
N681        N  0.07788043  0.59602952  0.08505653     0.14200
H682        H  0.06189862  0.58403142  0.15834361     0.16800
C683        C  0.06246667  0.61719670  0.04144025    -0.30800
H684        H  0.07197565  0.61864531  0.00423054     0.16800
H685        H  0.93323330  0.33815603  0.02506924     0.16800
H686        H  0.12375266  0.37174669  0.15300609     0.16900
H687        H  0.98176477  0.66004528  0.19696193     0.16800
O688        O  0.06297242  0.45709747  0.22774225    -0.80200
O689        O  0.22102853  0.46865369  0.19204903    -0.64900
O690        O  0.12938671  0.48050273  0.22978969    -1.11500
C691        C  0.10709724  0.57092282  0.09976511     1.06700
O692        O  0.22898644  0.53099451  0.19328541    -0.78100
O693        O  0.17899618  0.56636953  0.23345080    -0.65700
Ni694      Ni  0.10549880  0.43725587  0.21035467     1.34900
C695        C  0.14936738  0.57734861  0.24390817     0.85400
O696        O  0.18006906  0.42231512  0.25355124    -0.78600
O697        O  0.12663191  0.41899334  0.27989852    -0.88900
C698        C  0.24155888  0.49813897  0.19628332     0.85000
O699        O  0.09157031  0.45410192  0.13796446    -0.67100
O700        O  0.13933276  0.58245298  0.12453125    -0.86400
C701        C  0.11519614  0.43826432  0.11772848     0.85800
C702        C  0.15649097  0.40378534  0.27596434     1.07400
H703        H  0.15667773  0.50242518  0.12344839     0.39200
O704        O  0.15892781  0.51073388  0.16006584    -1.09100
O705        O  0.11963859  0.55980355  0.22043569    -0.65700
Ni706      Ni  0.11165934  0.51355559  0.17331916     1.26300
O707        O  0.14930679  0.43941869  0.14460789    -0.66000
O708        O  0.09602095  0.53890439  0.10749660    -0.78200
C709        C  0.04802154  0.48773930  0.21061845     0.85200
O710        O  0.06290903  0.51254583  0.18586478    -0.65400
Ni711      Ni  0.18405123  0.55543512  0.16136380     1.27400
Ni712      Ni  0.17310211  0.47002847  0.20886632     1.26100
H713        H  0.13188407  0.48917874  0.26636607     0.39700
C714        C  0.15063846  0.61781889  0.26979463     0.30700
C715        C  0.15635697  0.36062577  0.27935509     0.30700
C716        C  0.12008785  0.64082298  0.23587639    -0.05500
C717        C  0.14813993  0.63268781  0.32772306    -0.06300
C718        C  0.18699853  0.63703821  0.26249410    -0.06200
C719        C  0.12196602  0.34548274  0.23955753    -0.05500
C720        C  0.15352034  0.33855631  0.33142041    -0.06300
C721        C  0.18843585  0.34219478  0.26315813    -0.06200
C722        C  0.08611616  0.35839311  0.22246328    -0.31600
N723        N  0.06370055  0.66405700  0.20290646     0.14900
C724        C  0.08288071  0.63360036  0.22260895    -0.31600
H725        H  0.07001776  0.60847942  0.23355266     0.16900
C726        C  0.13354149  0.35052434  0.36689192    -0.30500
N727        N  0.11215635  0.65709223  0.38046798     0.13700
C728        C  0.11986209  0.62596764  0.35548029    -0.30500
C729        C  0.22519195  0.35164204  0.27686211    -0.30800
N730        N  0.24650641  0.65448855  0.28287299     0.14200
H731        H  0.23621885  0.37912397  0.28702175     0.16800
C732        C  0.22352415  0.62493314  0.27591697    -0.30800
H733        H  0.23292887  0.59685803  0.28335806     0.16800
H734        H  0.10164365  0.60205791  0.34896664     0.16800
H735        H  0.07805464  0.38682013  0.21945289     0.16900
H736        H  0.12797858  0.37928205  0.37231245     0.16800
C737        C  0.52478395  0.49791576  0.02977104     0.30700
C738        C  0.54955288  0.48223846  0.13462410     0.30700
C739        C  0.56258172  0.51521911  0.05368369    -0.05500
C740        C  0.50040524  0.51267987  0.06741800    -0.06300
C741        C  0.53105540  0.45540409  0.04611042    -0.06200
C742        C  0.57809860  0.50037085  0.10357325    -0.05500
C743        C  0.51511409  0.50599521  0.12335410    -0.06300
C744        C  0.53252298  0.44845342  0.10060099    -0.06200
C745        C  0.61078370  0.51889900  0.12115264    -0.31600
N746        N  0.60830231  0.55279762  0.09886985     0.14900
C747        C  0.57824906  0.55086067  0.05630711    -0.31600
H748        H  0.56479461  0.57477200  0.03497292     0.16900
C749        C  0.48528709  0.49900756  0.14678787    -0.30500
N750        N  0.45380241  0.50054005  0.10844910     0.13700
C751        C  0.46222976  0.50971013  0.06066051    -0.30500
C752        C  0.54252483  0.41337651  0.11053381    -0.30800
N753        N  0.56627274  0.40536842  0.07970996     0.14200
H754        H  0.54121305  0.39963604  0.14816590     0.16800
C755        C  0.55825426  0.43010536  0.03753435    -0.30800
H756        H  0.57566346  0.43387352  0.00928256     0.16800
H757        H  0.44213942  0.51071745  0.02263214     0.16800
H758        H  0.63203128  0.51195217  0.15562639     0.16900
H759        H  0.48686208  0.48843280  0.18747484     0.16800
O760        O  0.55166788  0.63863235  0.19159364    -0.80200
O761        O  0.71661091  0.62491049  0.20245286    -0.64900
O762        O  0.62505647  0.63567235  0.24396705    -1.11500
C763        C  0.60112489  0.39090245  0.11029788     1.06700
O764        O  0.72172816  0.35423459  0.19344154    -0.78100
O765        O  0.67006886  0.40570788  0.20046228    -0.65700
Ni766      Ni  0.58492578  0.60379997  0.23299330     1.34900
C767        C  0.65877278  0.40434039  0.24512318     0.85400
O768        O  0.67495391  0.57902366  0.26268944    -0.78600
O769        O  0.61695755  0.56864908  0.27551001    -0.90100
C770        C  0.73629396  0.65506165  0.20468335     0.85000
O771        O  0.58925824  0.58519352  0.16449239    -0.67100
O772        O  0.63042037  0.38593078  0.09319813    -0.86400
C773        C  0.61495440  0.58060961  0.13994730     0.85800
C774        C  0.64960850  0.55817789  0.27683965     1.07400
H775        H  0.63867130  0.32121323  0.13722169     0.39200
O776        O  0.65124958  0.33198830  0.17098228    -1.09100
O777        O  0.64317323  0.37532377  0.25862011    -0.65700
Ni778      Ni  0.61330616  0.34505374  0.20273349     1.26300
O779        O  0.64758054  0.59301980  0.15810923    -0.66000
O780        O  0.60284111  0.38678278  0.15992039    -0.78200
C781        C  0.54679449  0.66860116  0.21330375     0.85200
O782        O  0.57326328  0.35486477  0.23295395    -0.65400
Ni783      Ni  0.67662251  0.37049667  0.14568278     1.27400
Ni784      Ni  0.66790536  0.62484019  0.21927952     1.26100
H785        H  0.63201298  0.64140700  0.28201375     0.39700
C786        C  0.65614480  0.44193294  0.27124884     0.30700
C787        C  0.65338701  0.51637369  0.28297585     0.30700
C788        C  0.62383983  0.46121754  0.23506629    -0.05500
C789        C  0.65065937  0.45417508  0.32847984    -0.06300
C790        C  0.69005534  0.46439949  0.26502318    -0.06200
C791        C  0.62107860  0.49816900  0.24244103    -0.05500
C792        C  0.65168919  0.49399979  0.33506296    -0.06300
C793        C  0.68809427  0.50241978  0.26910526    -0.06200
C794        C  0.58427075  0.50664286  0.22025993    -0.31600
N795        N  0.56647768  0.47721857  0.19313402     0.14900
C796        C  0.58917853  0.44890481  0.21076039    -0.31600
H797        H  0.57899256  0.42191474  0.21806498     0.16900
C798        C  0.62827726  0.50232116  0.36772476    -0.30500
N799        N  0.61033816  0.47157227  0.37837484     0.13700
C800        C  0.62269453  0.44260318  0.35411495    -0.30500
C801        C  0.72343475  0.51481280  0.28863550    -0.30800
N802        N  0.74674540  0.48621153  0.29482194     0.14200
H803        H  0.73135082  0.54246034  0.30271533     0.16800
C804        C  0.72676936  0.45503828  0.28148567    -0.30800
H805        H  0.73759575  0.42738345  0.28793234     0.16800
H806        H  0.60784841  0.41656223  0.34661921     0.16800
H807        H  0.57203615  0.53349644  0.21752881     0.16900
H808        H  0.61835372  0.52978819  0.37192578     0.16800
C809        C  0.50309167  0.50090309  0.46534581     0.30700
C810        C  0.47626137  0.49869674  0.35691839     0.30700
C811        C  0.48573010  0.53887768  0.43824328    -0.05500
C812        C  0.53106100  0.49170900  0.43035668    -0.06300
C813        C  0.47178869  0.47146582  0.44469325    -0.06200
C814        C  0.47092960  0.53525182  0.38220432    -0.05500
C815        C  0.51663477  0.48970052  0.37531369    -0.06300
C816        C  0.45674435  0.47428187  0.39051295    -0.06200
C817        C  0.43817284  0.55337744  0.37127604    -0.31600
N818        N  0.43497707  0.57587391  0.41036136     0.14900
C819        C  0.46395996  0.56737712  0.45283288    -0.31600
H820        H  0.46795096  0.57936984  0.49254886     0.16900
C821        C  0.54376597  0.47828764  0.35056509    -0.30500
N822        N  0.57501345  0.47376474  0.38928263     0.13700
C823        C  0.56815775  0.48351770  0.43760654    -0.30500
C824        C  0.41988099  0.46843754  0.38588134    -0.30800
N825        N  0.41468224  0.44575373  0.42557457     0.14200
H826        H  0.39821308  0.47525594  0.35141926     0.16800
C827        C  0.44660424  0.44898765  0.46445386    -0.30800
H828        H  0.44976998  0.43845570  0.50543118     0.16800
H829        H  0.58901838  0.48523987  0.47478167     0.16800
H830        H  0.41607940  0.55049805  0.33627725     0.16900
H831        H  0.54151792  0.47515014  0.30753351     0.16800
O832        O  0.46523819  0.64095875  0.27458280    -0.80200
O833        O  0.30716190  0.62849734  0.30710983    -0.64900
O834        O  0.39901820  0.65137456  0.27416742    -1.11500
C835        C  0.39911756  0.41248863  0.39986978     1.06700
O836        O  0.29908343  0.35321288  0.27767217    -0.78100
O837        O  0.34387031  0.41216068  0.27666619    -0.65700
Ni838      Ni  0.42762723  0.61223852  0.29618526     1.34900
C839        C  0.37047474  0.41642732  0.25293224     0.85400
O840        O  0.35311861  0.58957568  0.24976419    -0.78600
O841        O  0.40805898  0.59071793  0.22727448    -0.88900
C842        C  0.28589798  0.65618173  0.29103936     0.85000
O843        O  0.43884038  0.63125694  0.36702751    -0.67100
O844        O  0.36384673  0.40919462  0.38783099    -0.86400
C845        C  0.41786963  0.60974164  0.38675652     0.85800
C846        C  0.37706827  0.57437583  0.22628076     1.07400
H847        H  0.36939735  0.33666030  0.37484776     0.39200
O848        O  0.36514289  0.34477157  0.33746567    -1.09100
O849        O  0.39704792  0.39376542  0.26364341    -0.65700
Ni850      Ni  0.41090979  0.35654767  0.32323804     1.26300
O851        O  0.38329454  0.60749104  0.36063666    -0.66000
O852        O  0.42042858  0.39365385  0.37751949    -0.78200
C853        C  0.47531744  0.67459792  0.28564106     0.85200
O854        O  0.45861609  0.36340869  0.31023726    -0.65400
Ni855      Ni  0.33083273  0.38121909  0.33204733     1.27400
Ni856      Ni  0.35628749  0.63574878  0.29384026     1.26100
H857        H  0.39544709  0.65872378  0.23651212     0.39700
C858        C  0.37291055  0.45534609  0.22344120     0.30700
C859        C  0.37407289  0.53203177  0.21440203     0.30700
C860        C  0.40536422  0.47562822  0.25750584    -0.05500
C861        C  0.37756481  0.47148460  0.16602389    -0.06300
C862        C  0.33860492  0.47625806  0.22975502    -0.06200
C863        C  0.40660997  0.51349364  0.25231715    -0.05500
C864        C  0.37568102  0.51202816  0.16110947    -0.06300
C865        C  0.33990253  0.51445529  0.22811866    -0.06200
C866        C  0.44340768  0.52325157  0.26926999    -0.31600
N867        N  0.46136997  0.49486324  0.29800998     0.14900
C868        C  0.44063852  0.46466287  0.28011747    -0.31600
H869        H  0.44868984  0.43681497  0.29271936     0.16900
C870        C  0.39905481  0.52367443  0.12913469    -0.30500
N871        N  0.41808254  0.49495196  0.11766764     0.13700
C872        C  0.40608300  0.46370703  0.13995434    -0.30500
C873        C  0.30389237  0.52564551  0.21348265    -0.30800
N874        N  0.28088701  0.49587846  0.20817678     0.14200
H875        H  0.29505016  0.55368035  0.20318793     0.16800
C876        C  0.30167305  0.46551253  0.21573144    -0.30800
H877        H  0.29081223  0.43771085  0.20803090     0.16800
H878        H  0.42165010  0.43845623  0.14634798     0.16800
H879        H  0.45488917  0.55090159  0.27059478     0.16900
H880        H  0.40839182  0.55202624  0.12670921     0.16800
C881        C  0.51043679  0.67675660  0.21889962    -0.15800
C882        C  0.50642410  0.68881897  0.26634808    -0.30900
H883        H  0.48776056  0.66248128  0.19194733     0.13300
H884        H  0.52752461  0.37058999  0.29241899     0.13800
C885        C  0.01158065  0.49349201  0.21863648    -0.15800
C886        C  0.00723677  0.50623656  0.26577056    -0.30900
H887        H  0.98923729  0.47890501  0.19162912     0.13300
H888        H  0.02942556  0.52071636  0.29320022     0.13800
C889        C  0.00151232  0.34509230  0.96739614     0.30700
C890        C  0.97277875  0.66676557  0.86623260     0.30700
C891        C  0.96656095  0.36699220  0.94421206    -0.05500
C892        C  0.02748373  0.35768697  0.92865182    -0.06300
C893        C  0.98962919  0.63567009  0.95326250    -0.06200
C894        C  0.94877322  0.35450359  0.89419311    -0.05500
C895        C  0.01023193  0.68702806  0.87675323    -0.06300
C896        C  0.98684113  0.63160928  0.89870230    -0.06200
C897        C  0.91818562  0.37495982  0.87801613    -0.31600
N898        N  0.92414776  0.40776127  0.90167195     0.14900
C899        C  0.95490876  0.40387997  0.94259993    -0.31600
H900        H  0.97015859  0.42653647  0.96487724     0.16900
C901        C  0.03825608  0.67649444  0.85189100    -0.30500
N902        N  0.06967925  0.67127987  0.88955875     0.13700
C903        C  0.06367718  0.68069527  0.93832961    -0.30500
C904        C  0.97734245  0.59715734  0.88670655    -0.30800
N905        N  0.95426857  0.58632389  0.91767669     0.14200
H906        H  0.98092429  0.58437313  0.85004519     0.16800
C907        C  0.96180323  0.60970220  0.96092223    -0.30800
H908        H  0.94543897  0.61121089  0.99101905     0.16800
H909        H  0.08397841  0.67738533  0.97581896     0.16800
H910        H  0.89592487  0.36983991  0.84392075     0.16900
H911        H  0.03439035  0.66782340  0.81029346     0.16800
O912        O  0.95272363  0.46202219  0.73859720    -0.80200
O913        O  0.80551827  0.46375069  0.80635420    -0.64900
O914        O  0.88826687  0.47907265  0.74942202    -1.11500
C915        C  0.92305124  0.56480376  0.88908010     1.06700
O916        O  0.79845525  0.52583115  0.80653226    -0.78100
O917        O  0.84845123  0.58026634  0.79154085    -0.65700
Ni918      Ni  0.91563588  0.43786525  0.76764210     1.34900
C919        C  0.86611186  0.58247839  0.75359452     0.85400
O920        O  0.84005503  0.42042067  0.73613490    -0.78600
O921        O  0.89068522  0.41985670  0.70148104    -0.88900
C922        C  0.78526479  0.49256815  0.80043315     0.85000
O923        O  0.93428574  0.45329200  0.83975681    -0.67100
O924        O  0.89000363  0.56694844  0.89615431    -0.86400
C925        C  0.91164407  0.43763904  0.86434359     0.85800
C926        C  0.86197156  0.40366420  0.71010222     1.07400
H927        H  0.87853201  0.49759092  0.86243729     0.39200
O928        O  0.86833458  0.50759057  0.82692129    -1.09100
O929        O  0.88762254  0.55667302  0.74677556    -0.65700
Ni930      Ni  0.90856157  0.51577688  0.79655678     1.26300
O931        O  0.87706487  0.43708619  0.84072856    -0.66000
O932        O  0.93029274  0.54738661  0.85011984    -0.78200
C933        C  0.96299557  0.49588996  0.74128688     0.85200
O934        O  0.94942628  0.52073754  0.76515090    -0.65400
Ni935      Ni  0.84393652  0.54627531  0.84931379     1.27400
Ni936      Ni  0.84943117  0.46727240  0.78000430     1.26100
H937        H  0.88149849  0.48644933  0.71168952     0.39700
C938        C  0.86633001  0.62183424  0.72697410     0.30700
C939        C  0.86314155  0.36131260  0.70882216     0.30700
C940        C  0.89479108  0.64394373  0.76642645    -0.05500
C941        C  0.87535210  0.63700431  0.67189347    -0.06300
C942        C  0.82977646  0.64061161  0.72790240    -0.06200
C943        C  0.89513574  0.34670599  0.75423901    -0.05500
C944        C  0.87048401  0.34027924  0.65962933    -0.06300
C945        C  0.82867907  0.34225592  0.71875335    -0.06200
C946        C  0.93201919  0.35781567  0.77477348    -0.31600
N947        N  0.95162861  0.66288179  0.80893550     0.14900
C948        C  0.92903299  0.63348401  0.79339851    -0.31600
H949        H  0.93751901  0.60551371  0.79384320     0.16900
C950        C  0.89471504  0.35305021  0.62953870    -0.30500
N951        N  0.91689824  0.66135714  0.62593340     0.13700
C952        C  0.90631709  0.63023896  0.65034555    -0.30500
C953        C  0.79231765  0.35171368  0.70430228    -0.30800
N954        N  0.77077313  0.65692096  0.70513460     0.14200
H955        H  0.78213667  0.37912446  0.69241394     0.16800
C956        C  0.79348699  0.62769783  0.71629319    -0.30800
H957        H  0.78447215  0.59907441  0.71304493     0.16800
H958        H  0.92325318  0.60600137  0.65964712     0.16800
H959        H  0.94227056  0.38586824  0.77523432     0.16900
H960        H  0.90081318  0.38189113  0.62313418     0.16800
C961        C  0.02406679  0.34495065  0.53464682     0.30700
C962        C  0.05032548  0.66813340  0.64373237     0.30700
C963        C  0.05858726  0.36859308  0.55825078    -0.05500
C964        C  0.99710419  0.35457579  0.57205230    -0.06300
C965        C  0.03715534  0.63821964  0.55634949    -0.06200
C966        C  0.07517488  0.35765239  0.60989732    -0.05500
C967        C  0.01188276  0.68463197  0.63022208    -0.06300
C968        C  0.04114172  0.63241842  0.61177565    -0.06200
C969        C  0.10758250  0.37677025  0.62358866    -0.31600
N970        N  0.10452007  0.40854714  0.59549503     0.14900
C971        C  0.07349128  0.40434488  0.55475950    -0.31600
H972        H  0.06064921  0.42638753  0.52818012     0.16900
C973        C  0.98337157  0.67305185  0.65408961    -0.30500
N974        N  0.95213699  0.66881975  0.61568259     0.13700
C975        C  0.95939709  0.67838147  0.56707885    -0.30500
C976        C  0.05717198  0.59996168  0.62445684    -0.30800
N977        N  0.07702971  0.59299388  0.58878648     0.14200
H978        H  0.05795221  0.58381216  0.66074798     0.16800
C979        C  0.06496934  0.61540848  0.54502461    -0.30800
H980        H  0.07705251  0.61683677  0.51014266     0.16800
H981        H  0.94017210  0.34194203  0.52749929     0.16800
H982        H  0.12958121  0.37217360  0.65814089     0.16900
H983        H  0.98623484  0.66443422  0.69595740     0.16800
O984        O  0.07193689  0.45866375  0.75188602    -0.80200
O985        O  0.22368906  0.46952115  0.69850460    -0.64900
O986        O  0.13513635  0.48074154  0.74320229    -1.11500
C987        C  0.10671986  0.56869161  0.60813188     1.06700
O988        O  0.23080361  0.53203828  0.69919675    -0.78100
O989        O  0.18167066  0.57193312  0.73606383    -0.65700
Ni990      Ni  0.11044385  0.43741279  0.72652787     1.34900
C991        C  0.15254847  0.57987628  0.75129107     0.85400
O992        O  0.18491944  0.42224025  0.76278735    -0.78600
O993        O  0.13360336  0.41995403  0.79458206    -0.88900
C994        C  0.24385623  0.49924857  0.70320266     0.85000
O995        O  0.09336683  0.45321304  0.65390746    -0.67100
O996        O  0.13973643  0.58098584  0.62722627    -0.86400
C997        C  0.11675166  0.43928807  0.63073677     0.85800
C998        C  0.16222778  0.40418350  0.78760262     1.07400
H999        H  0.15709872  0.50235420  0.63332424     0.39200
O1000       O  0.16097764  0.51099282  0.67002071    -1.09100
O1001       O  0.12363171  0.55967044  0.73328898    -0.65700
Ni1002     Ni  0.11509900  0.51332980  0.68743796     1.26300
O1003       O  0.15128132  0.44056902  0.65551270    -0.66000
O1004       O  0.09591180  0.53795876  0.62252939    -0.78200
C1005       C  0.05757619  0.48981888  0.73772208     0.85200
O1006       O  0.06864175  0.51255384  0.70579596    -0.65400
Ni1007     Ni  0.18530009  0.55550623  0.66555670     1.27400
Ni1008     Ni  0.17705033  0.47044078  0.71871569     1.26100
H1009       H  0.13924443  0.48979878  0.77979307     0.39700
C1010       C  0.15249690  0.61962399  0.77895322     0.30700
C1011       C  0.16028343  0.36120515  0.78999719     0.30700
C1012       C  0.12480997  0.64261339  0.73988678    -0.05500
C1013       C  0.14419866  0.63531979  0.83392366    -0.06300
C1014       C  0.19032501  0.63844361  0.77902358    -0.06200
C1015       C  0.12787881  0.34671566  0.74548540    -0.05500
C1016       C  0.15250239  0.33985300  0.84002166    -0.06300
C1017       C  0.19359169  0.34179413  0.78034427    -0.06200
C1018       C  0.09181044  0.35907908  0.72641698    -0.31600
N1019       N  0.06860866  0.66459067  0.70239138     0.14900
C1020       C  0.08823597  0.63439057  0.72133661    -0.31600
H1021       H  0.07560096  0.60965351  0.73380798     0.16900
C1022       C  0.12973987  0.35333833  0.87056881    -0.30500
N1023       N  0.10411737  0.66197485  0.87885582     0.13700
C1024       C  0.11254940  0.63022579  0.85567042    -0.30500
C1025       C  0.23013694  0.35117255  0.79461945    -0.30800
N1026       N  0.24984394  0.65512036  0.79966055     0.14200
H1027       H  0.24126260  0.37878784  0.80337487     0.16800
C1028       C  0.22653763  0.62575565  0.79245642    -0.30800
H1029       H  0.23543262  0.59739562  0.79758904     0.16800
H1030       H  0.09391986  0.60670491  0.84742910     0.16800
H1031       H  0.08322873  0.38732711  0.72443320     0.16900
H1032       H  0.12567588  0.38234609  0.87644568     0.16800
C1033       C  0.51938493  0.49681411  0.52746211     0.30700
C1034       C  0.54632745  0.48220291  0.63232115     0.30700
C1035       C  0.55741364  0.51412709  0.54992710    -0.05500
C1036       C  0.49611567  0.51228422  0.56582886    -0.06300
C1037       C  0.52517494  0.45442320  0.54464592    -0.06200
C1038       C  0.57421732  0.49914299  0.59919340    -0.05500
C1039       C  0.51205999  0.50642199  0.62179605    -0.06300
C1040       C  0.52823353  0.44822116  0.59980177    -0.06200
C1041       C  0.60638241  0.51870313  0.61576200    -0.31600
N1042       N  0.60243005  0.55273842  0.59425084     0.14900
C1043       C  0.57184819  0.55031494  0.55273340    -0.31600
H1044       H  0.55721768  0.57400280  0.53256403     0.16900
C1045       C  0.48296877  0.50009967  0.64689463    -0.30500
N1046       N  0.45093804  0.50080927  0.60960271     0.13700
C1047       C  0.45816834  0.50888397  0.56072459    -0.30500
C1048       C  0.53803683  0.41312894  0.61025533    -0.30800
N1049       N  0.56034171  0.40434598  0.57764046     0.14200
H1050       H  0.53816918  0.40014992  0.64890976     0.16800
C1051       C  0.55119466  0.42835035  0.53475835    -0.30800
H1052       H  0.56720965  0.43096846  0.50451073     0.16800
H1053       H  0.43751562  0.50866469  0.52323179     0.16800
H1054       H  0.62860750  0.51186339  0.64895708     0.16900
H1055       H  0.48540021  0.49028602  0.68814162     0.16800
O1056       O  0.54785647  0.63837627  0.69263749    -0.80200
O1057       O  0.71189920  0.62634668  0.69067695    -0.64900
O1058       O  0.62273255  0.63598150  0.73913632    -1.11500
C1059       C  0.59590556  0.39056079  0.60633679     1.06700
O1060       O  0.71699837  0.35397727  0.68119380    -0.78100
O1061       O  0.66719177  0.40641355  0.69152971    -0.65700
Ni1062     Ni  0.58289467  0.60380559  0.73124376     1.34900
C1063       C  0.65801282  0.40521489  0.73780112     0.85400
O1064       O  0.67337094  0.58026691  0.75531452    -0.78600
O1065       O  0.61635550  0.56896140  0.77147967    -0.90100
C1066       C  0.73094405  0.65681826  0.69090606     0.85000
O1067       O  0.58495855  0.58541880  0.66133488    -0.67100
O1068       O  0.62415074  0.38566839  0.58671646    -0.86400
C1069       C  0.60988945  0.58055288  0.63533949     0.85800
C1070       C  0.64884775  0.55900984  0.77080114     1.07400
H1071       H  0.63316844  0.32153273  0.63085156     0.39200
O1072       O  0.64714216  0.33221436  0.66384619    -1.09100
O1073       O  0.64372822  0.37599485  0.75324818    -0.65700
Ni1074     Ni  0.61157409  0.34566983  0.69966187     1.26300
O1075       O  0.64270108  0.59290968  0.65183497    -0.66000
O1076       O  0.59955328  0.38714029  0.65654606    -0.78200
C1077       C  0.54435668  0.66914580  0.71340112     0.85200
O1078       O  0.57386049  0.35592992  0.73427929    -0.65400
Ni1079     Ni  0.67139343  0.37047909  0.63617609     1.27400
Ni1080     Ni  0.66433931  0.62557096  0.71119882     1.26100
H1081       H  0.63078285  0.64202523  0.77696716     0.39700
C1082       C  0.65602714  0.44296179  0.76418051     0.30700
C1083       C  0.65310160  0.51731706  0.77622588     0.30700
C1084       C  0.62280498  0.46199254  0.72963789    -0.05500
C1085       C  0.65201512  0.45513250  0.82226730    -0.06300
C1086       C  0.68934112  0.46583855  0.75575895    -0.06200
C1087       C  0.62000585  0.49889536  0.73724475    -0.05500
C1088       C  0.65311080  0.49489928  0.82888320    -0.06300
C1089       C  0.68719634  0.50386140  0.75987416    -0.06200
C1090       C  0.58283994  0.50709887  0.71682455    -0.31600
N1091       N  0.56457398  0.47755375  0.69059079     0.14900
C1092       C  0.58779261  0.44946294  0.70737932    -0.31600
H1093       H  0.57804176  0.42262363  0.71640480     0.16900
C1094       C  0.63105454  0.50318018  0.86360943    -0.30500
N1095       N  0.61359763  0.47245416  0.87559462     0.13700
C1096       C  0.62504137  0.44355140  0.84996431    -0.30500
C1097       C  0.72270937  0.51687383  0.77696591    -0.30800
N1098       N  0.74625382  0.48856676  0.78219592     0.14200
H1099       H  0.73071100  0.54456247  0.79074363     0.16800
C1100       C  0.72631348  0.45709600  0.77041588    -0.30800
H1101       H  0.73746206  0.42957760  0.77704278     0.16800
H1102       H  0.61008035  0.41753207  0.84319321     0.16800
H1103       H  0.57037508  0.53377005  0.71516184     0.16900
H1104       H  0.62141411  0.53064713  0.86858253     0.16800
C1105       C  0.50856084  0.50204684  0.96785552     0.30700
C1106       C  0.48005743  0.49977571  0.85999316     0.30700
C1107       C  0.49089179  0.53997987  0.94138010    -0.05500
C1108       C  0.53591264  0.49282360  0.93182757    -0.06300
C1109       C  0.47703806  0.47259440  0.94820988    -0.06200
C1110       C  0.47521736  0.53638678  0.88562152    -0.05500
C1111       C  0.52053221  0.49072237  0.87703846    -0.06300
C1112       C  0.46114779  0.47536901  0.89439739    -0.06200
C1113       C  0.44248427  0.55455646  0.87602684    -0.31600
N1114       N  0.43999203  0.57688211  0.91569512     0.14900
C1115       C  0.46959382  0.56841259  0.95713531    -0.31600
H1116       H  0.47433972  0.58037367  0.99695553     0.16900
C1117       C  0.54695371  0.47915994  0.85103925    -0.30500
N1118       N  0.57881692  0.47475568  0.88854577     0.13700
C1119       C  0.57296791  0.48471494  0.93751010    -0.30500
C1120       C  0.42437487  0.46966048  0.89121864    -0.30800
N1121       N  0.41970298  0.44737432  0.93165239     0.14200
H1122       H  0.40220916  0.47662025  0.85754373     0.16800
C1123       C  0.45223510  0.45036335  0.96924377    -0.30800
H1124       H  0.45617530  0.43970623  0.01026168     0.16800
H1125       H  0.59440863  0.48689260  0.97398941     0.16800
H1126       H  0.41994300  0.55184386  0.84159890     0.16900
H1127       H  0.54379826  0.47587277  0.80785579     0.16800
O1128       O  0.46656793  0.64267231  0.77799211    -0.80200
O1129       O  0.31049158  0.62861055  0.81840727    -0.64900
O1130       O  0.40102620  0.65226837  0.78107385    -1.11500
C1131       C  0.40341738  0.41406982  0.90712092     1.06700
O1132       O  0.30247219  0.35242916  0.78928940    -0.78100
O1133       O  0.34554151  0.41182599  0.78296663    -0.65700
Ni1134     Ni  0.43024758  0.61333971  0.80164558     1.34900
C1135       C  0.37267966  0.41710897  0.76063828     0.85400
O1136       O  0.35553733  0.59016408  0.75852094    -0.78600
O1137       O  0.40954289  0.59174957  0.73315154    -0.88900
C1138       C  0.28893658  0.65625944  0.80345207     0.85000
O1139       O  0.44269222  0.63238522  0.87240976    -0.67100
O1140       O  0.36805827  0.41166098  0.89427334    -0.86400
C1141       C  0.42238618  0.61074909  0.89319368     0.85800
C1142       C  0.37885850  0.57520667  0.73361744     1.07400
H1143       H  0.37344366  0.33771023  0.88454029     0.39200
O1144       O  0.36890989  0.34563888  0.84704899    -1.09100
O1145       O  0.40004367  0.39542770  0.77291933    -0.65700
Ni1146     Ni  0.41425232  0.35752036  0.83155304     1.26300
O1147       O  0.38748182  0.60842409  0.86870205    -0.66000
O1148       O  0.42454899  0.39402197  0.88635744    -0.78200
C1149       C  0.47659465  0.67626277  0.78942588     0.85200
O1150       O  0.46160314  0.36464870  0.81743604    -0.65400
Ni1151     Ni  0.33447859  0.38207767  0.84108816     1.27400
Ni1152     Ni  0.35901011  0.63631726  0.80257717     1.26100
H1153       H  0.39670083  0.65982737  0.74341512     0.39700
C1154       C  0.37460382  0.45619305  0.73103350     0.30700
C1155       C  0.37573088  0.53287455  0.72172104     0.30700
C1156       C  0.40784082  0.47648700  0.76321748    -0.05500
C1157       C  0.37742614  0.47222451  0.67275206    -0.06300
C1158       C  0.34087499  0.47724214  0.73949855    -0.06200
C1159       C  0.40897228  0.51433926  0.75787006    -0.05500
C1160       C  0.37557460  0.51276764  0.66785855    -0.06300
C1161       C  0.34222375  0.51550531  0.73762729    -0.06200
C1162       C  0.44580556  0.52423647  0.77322849    -0.31600
N1163       N  0.46427810  0.49589890  0.80133059     0.14900
C1164       C  0.44339606  0.46563146  0.78422117    -0.31600
H1165       H  0.45181426  0.43783955  0.79652294     0.16900
C1166       C  0.39758507  0.52424135  0.63382452    -0.30500
N1167       N  0.41578906  0.49538318  0.62082051     0.13700
C1168       C  0.40458824  0.46424205  0.64429210    -0.30500
C1169       C  0.30621353  0.52681178  0.72289163    -0.30800
N1170       N  0.28317941  0.49714701  0.71711648     0.14200
H1171       H  0.29745046  0.55478822  0.71192632     0.16800
C1172       C  0.30388882  0.46674041  0.72516828    -0.30800
H1173       H  0.29295636  0.43904001  0.71667885     0.16800
H1174       H  0.42011811  0.43896408  0.64973936     0.16800
H1175       H  0.45714699  0.55193172  0.77409038     0.16900
H1176       H  0.40692826  0.55253743  0.63076188     0.16800
C1177       C  0.50870565  0.67942536  0.71943310    -0.15800
C1178       C  0.50621351  0.69141563  0.76763566    -0.30900
H1179       H  0.48523218  0.66575004  0.69328377     0.13300
H1180       H  0.52992316  0.37200382  0.79685404     0.13800
C1181       C  0.02622153  0.49883803  0.75775093    -0.15800
C1182       C  0.99512019  0.50529196  0.72231994    -0.30900
H1183       H  0.02636210  0.49156185  0.79974447     0.13300
H1184       H  0.99374251  0.50788039  0.67907284     0.13800
C1185       C  0.00762907  0.67807626  0.47266965     0.30700
C1186       C  0.97872209  0.00205926  0.36591275     0.30700
C1187       C  0.97540425  0.70342330  0.44785446    -0.05500
C1188       C  0.03503621  0.68588259  0.43417748    -0.06300
C1189       C  0.99114676  0.97179693  0.45499418    -0.06200
C1190       C  0.95832019  0.69360208  0.39636884    -0.05500
C1191       C  0.01804560  0.01727989  0.37845396    -0.06300
C1192       C  0.98566161  0.96646819  0.39942420    -0.06200
C1193       C  0.92447000  0.70921263  0.38641177    -0.31600
N1194       N  0.92559790  0.73867550  0.41783015     0.14900
C1195       C  0.95700827  0.73503821  0.45772646    -0.31600
H1196       H  0.96673372  0.75472972  0.48955013     0.16900
C1197       C  0.04525070  0.00470124  0.35425880    -0.30500
N1198       N  0.07661365  0.99988981  0.39196916     0.13700
C1199       C  0.07078898  0.01033653  0.44061503    -0.30500
C1200       C  0.96826078  0.93438739  0.38784051    -0.30800
N1201       N  0.94973222  0.92642334  0.42532513     0.14200
H1202       H  0.96650162  0.91846739  0.35196230     0.16800
C1203       C  0.96355588  0.94822356  0.46857920    -0.30800
H1204       H  0.95335405  0.94806788  0.50517625     0.16800
H1205       H  0.09128791  0.00853021  0.47817411     0.16800
H1206       H  0.90164587  0.70394531  0.35330577     0.16900
H1207       H  0.04124689  0.99582565  0.31273859     0.16800
O1208       O  0.95957830  0.79602324  0.26749428    -0.80200
O1209       O  0.80699365  0.79585634  0.31709147    -0.64900
O1210       O  0.89499377  0.81460904  0.27286921    -1.11500
C1211       C  0.92066511  0.90034145  0.40870414     1.06700
O1212       O  0.79810031  0.85755690  0.31848962    -0.78100
O1213       O  0.84484088  0.90271955  0.28186848    -0.65700
Ni1214     Ni  0.92000450  0.77197535  0.29012216     1.34900
C1215       C  0.87352662  0.91260033  0.26587862     0.85400
O1216       O  0.84496166  0.75490830  0.25142592    -0.78600
O1217       O  0.89706864  0.75420502  0.22156467    -0.88900
C1218       C  0.78610477  0.82410994  0.31195576     0.85000
O1219       O  0.93600157  0.78715164  0.36254906    -0.67100
O1220       O  0.88729826  0.91084000  0.38985618    -0.86400
C1221       C  0.91281066  0.77044477  0.38462309     0.85800
C1222       C  0.86760242  0.73782523  0.22741897     1.07400
H1223       H  0.87237330  0.83086476  0.38282449     0.39200
O1224       O  0.86828046  0.84072131  0.34633975    -1.09100
O1225       O  0.90314596  0.89377331  0.28331435    -0.65700
Ni1226     Ni  0.91408509  0.84676983  0.32919516     1.26300
O1227       O  0.87852178  0.77029068  0.35912295    -0.66000
O1228       O  0.93206637  0.87045618  0.39489573    -0.78200
C1229       C  0.97405649  0.82757509  0.28198690     0.85200
O1230       O  0.96130864  0.84965790  0.31156538    -0.65400
Ni1231     Ni  0.84260348  0.88317049  0.35216643     1.27400
Ni1232     Ni  0.85295767  0.80122115  0.29677493     1.26100
H1233       H  0.89107486  0.82435447  0.23625030     0.39700
C1234       C  0.87248281  0.95283101  0.23793939     0.30700
C1235       C  0.86732413  0.69478925  0.22502689     0.30700
C1236       C  0.90281468  0.97599273  0.27249961    -0.05500
C1237       C  0.87659373  0.96787523  0.17997063    -0.06300
C1238       C  0.83600480  0.97156910  0.24300373    -0.06200
C1239       C  0.90114299  0.67997108  0.26604056    -0.05500
C1240       C  0.87046502  0.67283929  0.17404270    -0.06300
C1241       C  0.83432346  0.67613338  0.24106546    -0.06200
C1242       C  0.93755891  0.69276369  0.28190568    -0.31600
N1243       N  0.95965129  0.99897496  0.30727629     0.14900
C1244       C  0.93958228  0.96852257  0.28887027    -0.31600
H1245       H  0.95174638  0.94397391  0.27731643     0.16900
C1246       C  0.89205368  0.68438325  0.13931765    -0.30500
N1247       N  0.91316497  0.99214326  0.12570946     0.13700
C1248       C  0.90468646  0.96111952  0.15250498    -0.30500
C1249       C  0.79769334  0.68528204  0.22523033    -0.30800
N1250       N  0.77644729  0.98823451  0.21993240     0.14200
H1251       H  0.78764008  0.71253724  0.21206077     0.16800
C1252       C  0.79924683  0.95900623  0.22968915    -0.30800
H1253       H  0.78984564  0.93066275  0.22317463     0.16800
H1254       H  0.92206006  0.93711138  0.15980031     0.16800
H1255       H  0.94642690  0.72125873  0.28327236     0.16900
H1256       H  0.89929915  0.71299043  0.13323573     0.16800
C1257       C  0.01791287  0.67701768  0.03577164     0.30700
C1258       C  0.04596474  0.00074300  0.13977016     0.30700
C1259       C  0.05063631  0.70305682  0.05997596    -0.05500
C1260       C  0.99032807  0.68371310  0.07360012    -0.06300
C1261       C  0.03426103  0.97123557  0.05172563    -0.06200
C1262       C  0.06712263  0.69365087  0.11231015    -0.05500
C1263       C  0.00707342  0.01562325  0.12584914    -0.06300
C1264       C  0.03913693  0.96510954  0.10739273    -0.06200
C1265       C  0.10180375  0.70908378  0.12171691    -0.31600
N1266       N  0.10261505  0.73769350  0.08771793     0.14900
C1267       C  0.07121178  0.73358156  0.04764598    -0.31600
H1268       H  0.06308835  0.75223389  0.01338531     0.16900
C1269       C  0.97929826  0.00410698  0.15072313    -0.30500
N1270       N  0.94772941  0.99982737  0.11321408     0.13700
C1271       C  0.95431844  0.00890929  0.06381854    -0.30500
C1272       C  0.05792170  0.93401507  0.11959926    -0.30800
N1273       N  0.07675894  0.92821156  0.08242133     0.14200
H1274       H  0.05977718  0.91690827  0.15514755     0.16800
C1275       C  0.06223000  0.94958109  0.03859745    -0.30800
H1276       H  0.07240348  0.95071767  0.00197438     0.16800
H1277       H  0.93351904  0.66901440  0.03011399     0.16800
H1278       H  0.12422024  0.70421702  0.15552754     0.16900
H1279       H  0.98275404  0.99582953  0.19282363     0.16800
O1280       O  0.06341151  0.78944992  0.22769568    -0.80200
O1281       O  0.22130078  0.80222678  0.19196956    -0.64900
O1282       O  0.12952502  0.81360530  0.22943759    -1.11500
C1283       C  0.10618711  0.90333820  0.09829594     1.06700
O1284       O  0.22878963  0.86463982  0.19260914    -0.78100
O1285       O  0.17819463  0.90006363  0.23194754    -0.65700
Ni1286     Ni  0.10617367  0.77005342  0.21086297     1.34900
C1287       C  0.14847204  0.91067535  0.24259759     0.85400
O1288       O  0.18060956  0.75571298  0.25393912    -0.78600
O1289       O  0.12740384  0.75259849  0.28080289    -0.88900
C1290       C  0.24167076  0.83183833  0.19634283     0.85000
O1291       O  0.09198832  0.78644203  0.13835375    -0.67100
O1292       O  0.13843268  0.91517387  0.12266735    -0.86400
C1293       C  0.11554522  0.77042258  0.11829925     0.85800
C1294       C  0.15722053  0.73733621  0.27698221     1.07400
H1295       H  0.15651632  0.83522867  0.12279875     0.39200
O1296       O  0.15873602  0.84373606  0.15931481    -1.09100
O1297       O  0.11888358  0.89274310  0.21936534    -0.65700
Ni1298     Ni  0.11141594  0.84625410  0.17258086     1.26300
O1299       O  0.14973260  0.77206110  0.14478153    -0.66000
O1300       O  0.09531393  0.87135407  0.10669792    -0.78200
C1301       C  0.04803113  0.81970544  0.20972525     0.85200
O1302       O  0.06267813  0.84465095  0.18491608    -0.65400
Ni1303     Ni  0.18348017  0.88863755  0.16009350     1.27400
Ni1304     Ni  0.17329157  0.80327172  0.20860455     1.26100
H1305       H  0.13200956  0.82251537  0.26588386     0.39700
C1306       C  0.14953310  0.95110209  0.26896745     0.30700
C1307       C  0.15707903  0.69413929  0.28136861     0.30700
C1308       C  0.11951353  0.97418084  0.23417016    -0.05500
C1309       C  0.14626703  0.96629995  0.32660354    -0.06300
C1310       C  0.18619574  0.97029565  0.26269364    -0.06200
C1311       C  0.12263966  0.67870913  0.24214075    -0.05500
C1312       C  0.15418248  0.67250881  0.33384527    -0.06300
C1313       C  0.18900592  0.67548722  0.26521252    -0.06200
C1314       C  0.08671257  0.69147732  0.22608801    -0.31600
N1315       N  0.06356012  0.99734448  0.19886400     0.14900
C1316       C  0.08247386  0.96683241  0.21892581    -0.31600
H1317       H  0.06939377  0.94185095  0.22985193     0.16900
C1318       C  0.13360986  0.68471503  0.36850098    -0.30500
N1319       N  0.11079007  0.99131416  0.37999767     0.13700
C1320       C  0.11786667  0.96007482  0.35446364    -0.30500
C1321       C  0.22569239  0.68509152  0.27816698    -0.30800
N1322       N  0.24574194  0.98774240  0.28308565     0.14200
H1323       H  0.23666565  0.71266687  0.28772258     0.16800
C1324       C  0.22273120  0.95816589  0.27621450    -0.30800
H1325       H  0.23209678  0.93006430  0.28349281     0.16800
H1326       H  0.09937418  0.93636875  0.34811274     0.16800
H1327       H  0.07857712  0.71987310  0.22289021     0.16900
H1328       H  0.12772151  0.71349175  0.37314291     0.16800
C1329       C  0.52483715  0.83118552  0.03117259     0.30700
C1330       C  0.54993779  0.81550564  0.13603908     0.30700
C1331       C  0.56261358  0.84858802  0.05499720    -0.05500
C1332       C  0.50066607  0.84593446  0.06896097    -0.06300
C1333       C  0.53120801  0.78863060  0.04756129    -0.06200
C1334       C  0.57840174  0.83360867  0.10474428    -0.05500
C1335       C  0.51546541  0.83926333  0.12487315    -0.06300
C1336       C  0.53285792  0.78167225  0.10216639    -0.06200
C1337       C  0.61084668  0.85254621  0.12237573    -0.31600
N1338       N  0.60789451  0.88652314  0.10043461     0.14900
C1339       C  0.57777572  0.88446326  0.05802809    -0.31600
H1340       H  0.56393363  0.90832349  0.03711393     0.16900
C1341       C  0.48563879  0.83242450  0.14837319    -0.30500
N1342       N  0.45413651  0.83414471  0.11004508     0.13700
C1343       C  0.46253918  0.84313403  0.06222107    -0.30500
C1344       C  0.54317980  0.74667516  0.11219614    -0.30800
N1345       N  0.56693635  0.73887015  0.08132582     0.14200
H1346       H  0.54209519  0.73296109  0.14991150     0.16800
C1347       C  0.55858337  0.76347965  0.03903007    -0.30800
H1348       H  0.57587157  0.76726796  0.01064003     0.16800
H1349       H  0.44245422  0.84399173  0.02418138     0.16800
H1350       H  0.63236626  0.84559953  0.15649923     0.16900
H1351       H  0.48719705  0.82183159  0.18904640     0.16800
O1352       O  0.55137416  0.97238949  0.19506926    -0.80200
O1353       O  0.71695633  0.95848472  0.20282386    -0.64900
O1354       O  0.62556206  0.96943134  0.24544981    -1.11500
C1355       C  0.60198510  0.72477095  0.11181624     1.06700
O1356       O  0.72199988  0.68721084  0.19457450    -0.78100
O1357       O  0.67097768  0.73899358  0.20197799    -0.65700
Ni1358     Ni  0.58537230  0.93750378  0.23503847     1.34900
C1359       C  0.65965827  0.73762060  0.24663376     0.85400
O1360       O  0.67574734  0.91280435  0.26403721    -0.78600
O1361       O  0.61767769  0.90204670  0.27615838    -0.90100
C1362       C  0.73658735  0.98866913  0.20442193     0.85000
O1363       O  0.58904518  0.91958580  0.16573591    -0.67100
O1364       O  0.63116696  0.71970557  0.09447006    -0.86400
C1365       C  0.61480472  0.91434992  0.14149837     0.85800
C1366       C  0.65037347  0.89172910  0.27761046     1.07400
H1367       H  0.63898458  0.65492605  0.13778645     0.39200
O1368       O  0.65169565  0.66545987  0.17165148    -1.09100
O1369       O  0.64413643  0.70852301  0.26006712    -0.65700
Ni1370     Ni  0.61398558  0.67874566  0.20371301     1.26300
O1371       O  0.64763429  0.92618178  0.15988258    -0.66000
O1372       O  0.60398116  0.72083784  0.16152234    -0.78200
C1373       C  0.54716922  0.00285275  0.21603428     0.85200
O1374       O  0.57402046  0.68855988  0.23413091    -0.65400
Ni1375     Ni  0.67726492  0.70392095  0.14683238     1.27400
Ni1376     Ni  0.66833226  0.95842725  0.22031251     1.26100
H1377       H  0.63264417  0.97539702  0.28340646     0.39700
C1378       C  0.65681101  0.77532373  0.27252004     0.30700
C1379       C  0.65416908  0.84989605  0.28352860     0.30700
C1380       C  0.62445002  0.79452676  0.23623140    -0.05500
C1381       C  0.65138707  0.78792469  0.32966274    -0.06300
C1382       C  0.69063114  0.79775331  0.26587409    -0.06200
C1383       C  0.62173939  0.83154778  0.24334452    -0.05500
C1384       C  0.65264434  0.82778727  0.33587099    -0.06300
C1385       C  0.68864826  0.83581403  0.26924730    -0.06200
C1386       C  0.58490650  0.84001776  0.22140260    -0.31600
N1387       N  0.56700399  0.81055557  0.19455262     0.14900
C1388       C  0.58969511  0.78223906  0.21231164    -0.31600
H1389       H  0.57949571  0.75532308  0.21999817     0.16900
C1390       C  0.62934483  0.83654209  0.36849037    -0.30500
N1391       N  0.61102987  0.80608585  0.37920237     0.13700
C1392       C  0.62318282  0.77683905  0.35521706    -0.30500
C1393       C  0.72399288  0.84837239  0.28767219    -0.30800
N1394       N  0.74728275  0.81977247  0.29412111     0.14200
H1395       H  0.73200570  0.87615080  0.30099935     0.16800
C1396       C  0.72735511  0.78846617  0.28193695    -0.30800
H1397       H  0.73826435  0.76086212  0.28888480     0.16800
H1398       H  0.60807324  0.75093868  0.34780790     0.16800
H1399       H  0.57278205  0.86693082  0.21834911     0.16900
H1400       H  0.61970453  0.86415519  0.37249060     0.16800
C1401       C  0.50350527  0.83565445  0.46576663     0.30700
C1402       C  0.47673803  0.83324737  0.35734962     0.30700
C1403       C  0.48563663  0.87341463  0.43864288    -0.05500
C1404       C  0.53166764  0.82691306  0.43084541    -0.06300
C1405       C  0.47260212  0.80585574  0.44510798    -0.06200
C1406       C  0.47084710  0.86966885  0.38263262    -0.05500
C1407       C  0.51728527  0.82485967  0.37577100    -0.06300
C1408       C  0.45758307  0.80845736  0.39095718    -0.06200
C1409       C  0.43782531  0.88734981  0.37179590    -0.31600
N1410       N  0.43444416  0.90983582  0.41083237     0.14900
C1411       C  0.46357415  0.90163367  0.45323366    -0.31600
H1412       H  0.46746966  0.91362892  0.49293529     0.16900
C1413       C  0.54447014  0.81338833  0.35113021    -0.30500
N1414       N  0.57567633  0.80881612  0.38993005     0.13700
C1415       C  0.56877164  0.81861490  0.43822301    -0.30500
C1416       C  0.42083074  0.80191608  0.38633173    -0.30800
N1417       N  0.41594924  0.77929997  0.42624762     0.14200
H1418       H  0.39897555  0.80850669  0.35204732     0.16800
C1419       C  0.44782095  0.78292556  0.46502727    -0.30800
H1420       H  0.45113887  0.77236171  0.50600693     0.16800
H1421       H  0.58953988  0.82002596  0.47553296     0.16800
H1422       H  0.41579167  0.88432182  0.33676213     0.16900
H1423       H  0.54220544  0.80996860  0.30814865     0.16800
O1424       O  0.46521554  0.97522186  0.27541244    -0.80200
O1425       O  0.30660903  0.96199906  0.30686760    -0.64900
O1426       O  0.39874734  0.98530420  0.27466974    -1.11500
C1427       C  0.40029049  0.74590946  0.40113743     1.06700
O1428       O  0.29951870  0.68690388  0.27950329    -0.78100
O1429       O  0.34429331  0.74560604  0.27745181    -0.65700
Ni1430     Ni  0.42751057  0.94625787  0.29660809     1.34900
C1431       C  0.37116287  0.75020918  0.25436173     0.85400
O1432       O  0.35307876  0.92341601  0.24997533    -0.78600
O1433       O  0.40807358  0.92475278  0.22761379    -0.88900
C1434       C  0.28515206  0.98955247  0.29083039     0.85000
O1435       O  0.43842283  0.96517639  0.36749199    -0.67100
O1436       O  0.36499874  0.74298851  0.38870616    -0.86400
C1437       C  0.41736583  0.94367622  0.38707442     0.85800
C1438       C  0.37712678  0.90828394  0.22663881     1.07400
H1439       H  0.36994452  0.67012834  0.37595003     0.39200
O1440       O  0.36573884  0.67830844  0.33860084    -1.09100
O1441       O  0.39799801  0.72779079  0.26561550    -0.65700
Ni1442     Ni  0.41159624  0.68987194  0.32449599     1.26300
O1443       O  0.38281017  0.94143505  0.36084640    -0.66000
O1444       O  0.42156283  0.72662016  0.37936719    -0.78200
C1445       C  0.47536600  0.00872224  0.28742648     0.85200
O1446       O  0.45940481  0.69631645  0.31160875    -0.65400
Ni1447     Ni  0.33164218  0.71492767  0.33342332     1.27400
Ni1448     Ni  0.35585371  0.96955958  0.29388443     1.26100
H1449       H  0.39532982  0.99279872  0.23709090     0.39700
C1450       C  0.37333724  0.78921687  0.22480485     0.30700
C1451       C  0.37424497  0.86588658  0.21512868     0.30700
C1452       C  0.40585805  0.80970163  0.25843795    -0.05500
C1453       C  0.37777768  0.80514818  0.16722440    -0.06300
C1454       C  0.33896285  0.81012116  0.23123660    -0.06200
C1455       C  0.40692866  0.84756103  0.25300147    -0.05500
C1456       C  0.37574698  0.84568977  0.16194858    -0.06300
C1457       C  0.34015333  0.84833361  0.22921132    -0.06200
C1458       C  0.44368956  0.85754615  0.26974509    -0.31600
N1459       N  0.46187947  0.82927476  0.29844601     0.14900
C1460       C  0.44127979  0.79895284  0.28066816    -0.31600
H1461       H  0.44953927  0.77113996  0.29322528     0.16900
C1462       C  0.39915548  0.85725384  0.12999100    -0.30500
N1463       N  0.41839095  0.82853277  0.11907966     0.13700
C1464       C  0.40639126  0.79733152  0.14140014    -0.30500
C1465       C  0.30408137  0.85948123  0.21438393    -0.30800
N1466       N  0.28108998  0.82971134  0.20912104     0.14200
H1467       H  0.29521036  0.88745891  0.20368878     0.16800
C1468       C  0.30199026  0.79937713  0.21712627    -0.30800
H1469       H  0.29118996  0.77155601  0.20944552     0.16800
H1470       H  0.42206078  0.77214987  0.14812539     0.16800
H1471       H  0.45500930  0.88525941  0.27102532     0.16900
H1472       H  0.40839481  0.88562046  0.12732687     0.16800
C1473       C  0.51094491  0.01218236  0.22122523    -0.15800
C1474       C  0.50686860  0.02319220  0.26918709    -0.30900
H1475       H  0.48800337  0.99898007  0.19333114     0.13300
H1476       H  0.52857262  0.70283919  0.29451611     0.13800
C1477       C  0.01150438  0.82496421  0.21722180    -0.15800
C1478       C  0.00701262  0.83825916  0.26385084    -0.30900
H1479       H  0.98941516  0.80981986  0.19055758     0.13300
H1480       H  0.02902496  0.85322552  0.29091308     0.13800
C1481       C  0.00118875  0.67669581  0.97253959     0.30700
C1482       C  0.97563243  0.99967464  0.86038587     0.30700
C1483       C  0.96550192  0.69755293  0.95042816    -0.05500
C1484       C  0.02683089  0.69023632  0.93365801    -0.06300
C1485       C  0.98880301  0.97008461  0.94957588    -0.06200
C1486       C  0.94827140  0.68622453  0.89974732    -0.05500
C1487       C  0.01500811  0.01567707  0.87307273    -0.06300
C1488       C  0.98349244  0.96414624  0.89406506    -0.06200
C1489       C  0.91624511  0.70496896  0.88536010    -0.31600
N1490       N  0.91990795  0.73653252  0.91279188     0.14900
C1491       C  0.95100346  0.73274593  0.95321181    -0.31600
H1492       H  0.96466406  0.75508555  0.97810444     0.16900
C1493       C  0.04320794  0.00309147  0.85049392    -0.30500
N1494       N  0.07431059  0.99941356  0.88939571     0.13700
C1495       C  0.06747948  0.01035637  0.93693809    -0.30500
C1496       C  0.96576901  0.93202153  0.88332571    -0.30800
N1497       N  0.94706056  0.92482683  0.92084645     0.14200
H1498       H  0.96386955  0.91564894  0.84787363     0.16800
C1499       C  0.96095352  0.94708439  0.96351287    -0.30800
H1500       H  0.95029119  0.94818498  0.99968232     0.16800
H1501       H  0.08738170  0.00874039  0.97510918     0.16800
H1502       H  0.89478393  0.70055924  0.84997617     0.16900
H1503       H  0.04005061  0.99337599  0.80953721     0.16800
O1504       O  0.95914627  0.79558586  0.76532846    -0.80200
O1505       O  0.80388869  0.79528461  0.80648721    -0.64900
O1506       O  0.89411737  0.81439654  0.76899019    -1.11500
C1507       C  0.91766240  0.89895071  0.90510176     1.06700
O1508       O  0.79521551  0.85661165  0.81294248    -0.78100
O1509       O  0.84276674  0.89870625  0.77524076    -0.65700
Ni1510     Ni  0.91830192  0.77118719  0.78425034     1.34900
C1511       C  0.87185022  0.90922001  0.76121462     0.85400
O1512       O  0.84273541  0.75689207  0.74067722    -0.78600
O1513       O  0.89617413  0.75583181  0.71423274    -0.88900
C1514       C  0.78310482  0.82349404  0.80297466     0.85000
O1515       O  0.93322682  0.78392342  0.85764230    -0.67100
O1516       O  0.88479680  0.90979683  0.88344933    -0.86400
C1517       C  0.90872289  0.76771415  0.87753210     0.85800
C1518       C  0.86576156  0.74012605  0.71730099     1.07400
H1519       H  0.86823650  0.82832605  0.87769099     0.39200
O1520       O  0.86543892  0.83895948  0.84179636    -1.09100
O1521       O  0.90194272  0.89187319  0.78180116    -0.65700
Ni1522     Ni  0.91218596  0.84492143  0.82752475     1.26300
O1523       O  0.87482537  0.76833447  0.85023274    -0.66000
O1524       O  0.92862081  0.86810489  0.89428709    -0.78200
C1525       C  0.97406410  0.82624621  0.78356853     0.85200
O1526       O  0.96046821  0.84762068  0.81319077    -0.65400
Ni1527     Ni  0.83998537  0.88187906  0.84631803     1.27400
Ni1528     Ni  0.85081282  0.80116662  0.78927862     1.26100
H1529       H  0.89130862  0.82523463  0.73309525     0.39700
C1530       C  0.87019996  0.94879231  0.73248742     0.30700
C1531       C  0.86450687  0.69752519  0.71367001     0.30700
C1532       C  0.89977141  0.97271878  0.76724330    -0.05500
C1533       C  0.87559428  0.96256162  0.67476822    -0.06300
C1534       C  0.83289847  0.96712586  0.73531644    -0.06200
C1535       C  0.89592973  0.68156126  0.75867682    -0.05500
C1536       C  0.87124367  0.67667021  0.66408638    -0.06300
C1537       C  0.82909318  0.67877800  0.72294416    -0.06200
C1538       C  0.93276904  0.69182699  0.78092982    -0.31600
N1539       N  0.95652208  0.99630181  0.80159306     0.14900
C1540       C  0.93664189  0.96563976  0.78412647    -0.31600
H1541       H  0.94909672  0.94112271  0.77305486     0.16900
C1542       C  0.89537059  0.68907147  0.63370618    -0.30500
N1543       N  0.91444892  0.98708454  0.62431818     0.13700
C1544       C  0.90565013  0.95620742  0.65101048    -0.30500
C1545       C  0.79235307  0.68793167  0.70739496    -0.30800
N1546       N  0.77328684  0.98412781  0.71075242     0.14200
H1547       H  0.78211599  0.71528885  0.69527551     0.16800
C1548       C  0.79598208  0.95468487  0.72184997    -0.30800
H1549       H  0.78647563  0.92629520  0.71664944     0.16800
H1550       H  0.92380888  0.93291935  0.66118579     0.16800
H1551       H  0.94380054  0.71959568  0.78279436     0.16900
H1552       H  0.90244953  0.71782604  0.62851658     0.16800
C1553       C  0.02374426  0.67824947  0.53597650     0.30700
C1554       C  0.04846488  0.00188201  0.64584258     0.30700
C1555       C  0.05825295  0.70172483  0.55964182    -0.05500
C1556       C  0.99662073  0.68805842  0.57333863    -0.06300
C1557       C  0.03867391  0.97285264  0.55719523    -0.06200
C1558       C  0.07428509  0.69158584  0.61174512    -0.05500
C1559       C  0.00860967  0.01454346  0.63110068    -0.06300
C1560       C  0.04370494  0.96663311  0.61281467    -0.06200
C1561       C  0.10789282  0.70903732  0.62395235    -0.31600
N1562       N  0.10726299  0.73917466  0.59233710     0.14900
C1563       C  0.07640550  0.73489456  0.55135536    -0.31600
H1564       H  0.06601689  0.75569088  0.52084952     0.16900
C1565       C  0.98047656  0.00048271  0.65371482    -0.30500
N1566       N  0.94960489  0.99591611  0.61465856     0.13700
C1567       C  0.95691004  0.00729721  0.56672120    -0.30500
C1568       C  0.06251920  0.93565442  0.62521631    -0.30800
N1569       N  0.08118124  0.92974532  0.58789726     0.14200
H1570       H  0.06432226  0.91853138  0.66069861     0.16800
C1571       C  0.06662694  0.95117286  0.54402788    -0.30800
H1572       H  0.07649135  0.95191473  0.50716634     0.16800
H1573       H  0.93951263  0.67572299  0.52905594     0.16800
H1574       H  0.12952704  0.70485116  0.65905715     0.16900
H1575       H  0.98332597  0.99113204  0.69525045     0.16800
O1576       O  0.06510944  0.79190112  0.73323897    -0.80200
O1577       O  0.22410200  0.80290418  0.70155699    -0.64900
O1578       O  0.13132264  0.81489405  0.73524110    -1.11500
C1579       C  0.11036806  0.90458254  0.60378990     1.06700
O1580       O  0.23179240  0.86525875  0.70136605    -0.78100
O1581       O  0.18089597  0.90037715  0.73908605    -0.65700
Ni1582     Ni  0.10777946  0.77128881  0.71720612     1.34900
C1583       C  0.15101490  0.91141039  0.74844665     0.85400
O1584       O  0.18231342  0.75713750  0.76245613    -0.78600
O1585       O  0.12842292  0.75433728  0.78755356    -0.88900
C1586       C  0.24454576  0.83245759  0.70611680     0.85000
O1587       O  0.09446352  0.78660089  0.64414525    -0.67100
O1588       O  0.14241731  0.91615320  0.62933592    -0.86400
C1589       C  0.11891337  0.77131451  0.62491043     0.85800
C1590       C  0.15858445  0.73910046  0.78516621     1.07400
H1591       H  0.16032573  0.83585787  0.62992520     0.39200
O1592       O  0.16193968  0.84451672  0.66622573    -1.09100
O1593       O  0.12142998  0.89387119  0.72428824    -0.65700
Ni1594     Ni  0.11417638  0.84736086  0.67764108     1.26300
O1595       O  0.15280990  0.77311620  0.65253435    -0.66000
O1596       O  0.09922936  0.87254399  0.61137866    -0.78200
C1597       C  0.05007423  0.82214828  0.71416213     0.85200
O1598       O  0.06499490  0.84622430  0.68827563    -0.65400
Ni1599     Ni  0.18696391  0.88932291  0.66768754     1.27400
Ni1600     Ni  0.17562880  0.80434375  0.71639024     1.26100
H1601       H  0.13333741  0.82416233  0.77140012     0.39700
C1602       C  0.15224600  0.95174108  0.77451931     0.30700
C1603       C  0.15851313  0.69603552  0.79017232     0.30700
C1604       C  0.12269948  0.97527770  0.73928411    -0.05500
C1605       C  0.14771753  0.96605922  0.83172888    -0.06300
C1606       C  0.18947411  0.97070540  0.77008656    -0.06200
C1607       C  0.12658446  0.68058766  0.74609173    -0.05500
C1608       C  0.15071853  0.67505977  0.84039501    -0.06300
C1609       C  0.19249144  0.67669768  0.78146781    -0.06200
C1610       C  0.09040201  0.69247458  0.72710516    -0.31600
N1611       N  0.06646740  0.99873389  0.70507197     0.14900
C1612       C  0.08547227  0.96821967  0.72469903    -0.31600
H1613       H  0.07235299  0.94322479  0.73552820     0.16900
C1614       C  0.12778103  0.68853687  0.87065066    -0.30500
N1615       N  0.10924725  0.99079345  0.88028172     0.13700
C1616       C  0.11757889  0.95967731  0.85593787    -0.30500
C1617       C  0.22925546  0.68606722  0.79513864    -0.30800
N1618       N  0.24920685  0.98797465  0.79158655     0.14200
H1619       H  0.24040838  0.71375402  0.80300617     0.16800
C1620       C  0.22604077  0.95844289  0.78342809    -0.30800
H1621       H  0.23531946  0.93025687  0.78940481     0.16800
H1622       H  0.09897199  0.93615799  0.84726886     0.16800
H1623       H  0.08141502  0.72060271  0.72422000     0.16900
H1624       H  0.12298998  0.71755869  0.87531600     0.16800
C1625       C  0.51949821  0.83142646  0.52789620     0.30700
C1626       C  0.54565763  0.81604172  0.63261782     0.30700
C1627       C  0.55766898  0.84821428  0.55091601    -0.05500
C1628       C  0.49605465  0.84684071  0.56615735    -0.06300
C1629       C  0.52486468  0.78896378  0.54456869    -0.06200
C1630       C  0.57396095  0.83301001  0.60027727    -0.05500
C1631       C  0.51177985  0.84069148  0.62212889    -0.06300
C1632       C  0.52742004  0.78238514  0.59946053    -0.06200
C1633       C  0.60640090  0.85200075  0.61739253    -0.31600
N1634       N  0.60320315  0.88600339  0.59563420     0.14900
C1635       C  0.57282349  0.88406688  0.55374202    -0.31600
H1636       H  0.55880991  0.90798122  0.53326684     0.16900
C1637       C  0.48267257  0.83440728  0.64710611    -0.30500
N1638       N  0.45074898  0.83498749  0.60968470     0.13700
C1639       C  0.45807591  0.84323002  0.56089135    -0.30500
C1640       C  0.53677000  0.74710958  0.60931030    -0.30800
N1641       N  0.55912651  0.73826720  0.57677369     0.14200
H1642       H  0.53637293  0.73370392  0.64750625     0.16800
C1643       C  0.55059772  0.76273546  0.53440001    -0.30800
H1644       H  0.56687240  0.76551750  0.50447977     0.16800
H1645       H  0.43751009  0.84285545  0.52331023     0.16800
H1646       H  0.62812383  0.84501378  0.65122539     0.16900
H1647       H  0.48503855  0.82447056  0.68828468     0.16800
O1648       O  0.54948986  0.97317346  0.69232730    -0.80200
O1649       O  0.71329885  0.95595812  0.69419828    -0.64900
O1650       O  0.62379339  0.96933841  0.74042153    -1.11500
C1651       C  0.59436783  0.72377553  0.60546592     1.06700
O1652       O  0.71601942  0.68863784  0.68098365    -0.78100
O1653       O  0.66501129  0.73953971  0.69121354    -0.65700
Ni1654     Ni  0.58330106  0.93781437  0.73144355     1.34900
C1655       C  0.65593451  0.73790796  0.73755732     0.85400
O1656       O  0.67323611  0.91232284  0.75786788    -0.78600
O1657       O  0.61560337  0.90194611  0.77182989    -0.90100
C1658       C  0.73349308  0.98556394  0.69525738     0.85000
O1659       O  0.58549984  0.91943928  0.66168584    -0.67100
O1660       O  0.62266331  0.71876701  0.58604560    -0.86400
C1661       C  0.61075163  0.91381878  0.63662048     0.85800
C1662       C  0.64811281  0.89143452  0.77225048     1.07400
H1663       H  0.63245692  0.65441422  0.63020842     0.39200
O1664       O  0.64608725  0.66536372  0.66322719    -1.09100
O1665       O  0.64174515  0.70858870  0.75260083    -0.65700
Ni1666     Ni  0.61004139  0.67849340  0.69850265     1.26300
O1667       O  0.64374414  0.92529131  0.65410591    -0.66000
O1668       O  0.59772316  0.71995607  0.65554917    -0.78200
C1669       C  0.54612922  0.00373569  0.71364912     0.85200
O1670       O  0.57222919  0.68857362  0.73265478    -0.65400
Ni1671     Ni  0.66999229  0.70409942  0.63576399     1.27400
Ni1672     Ni  0.66563035  0.95751677  0.71373010     1.26100
H1673       H  0.63154612  0.97534289  0.77831242     0.39700
C1674       C  0.65416602  0.77529897  0.76474847     0.30700
C1675       C  0.65193206  0.84964431  0.77735147     0.30700
C1676       C  0.62092944  0.79463163  0.73108662    -0.05500
C1677       C  0.65105111  0.78743126  0.82327856    -0.06300
C1678       C  0.68740570  0.79779879  0.75582044    -0.06200
C1679       C  0.61846244  0.83148891  0.73899041    -0.05500
C1680       C  0.65252815  0.82719852  0.83008999    -0.06300
C1681       C  0.68559000  0.83586720  0.76007760    -0.06200
C1682       C  0.58163711  0.84027716  0.71761625    -0.31600
N1683       N  0.56333955  0.81093477  0.69088812     0.14900
C1684       C  0.58606635  0.78247409  0.70773620    -0.31600
H1685       H  0.57600774  0.75547943  0.71519602     0.16900
C1686       C  0.63117881  0.83566569  0.86560706    -0.30500
N1687       N  0.61359813  0.80509753  0.87779508     0.13700
C1688       C  0.62445303  0.77609103  0.85171830    -0.30500
C1689       C  0.72113883  0.84820950  0.77788968    -0.30800
N1690       N  0.74430650  0.81955083  0.78364742     0.14200
H1691       H  0.72934601  0.87575444  0.79213044     0.16800
C1692       C  0.72418191  0.78842102  0.77094808    -0.30800
H1693       H  0.73495114  0.76075906  0.77780792     0.16800
H1694       H  0.60913978  0.75026865  0.84499951     0.16800
H1695       H  0.56969815  0.86726015  0.71498896     0.16900
H1696       H  0.62179960  0.86322038  0.87074176     0.16800
C1697       C  0.50844595  0.83552743  0.96916692     0.30700
C1698       C  0.48035426  0.83327132  0.86107089     0.30700
C1699       C  0.49053629  0.87342984  0.94250117    -0.05500
C1700       C  0.53595164  0.82648712  0.93332756    -0.06300
C1701       C  0.47710496  0.80597892  0.94920741    -0.06200
C1702       C  0.47529757  0.86988699  0.88654829    -0.05500
C1703       C  0.52076114  0.82434562  0.87849902    -0.06300
C1704       C  0.46139275  0.80880701  0.89529451    -0.06200
C1705       C  0.44266594  0.88826580  0.87608613    -0.31600
N1706       N  0.43965336  0.91044447  0.91565578     0.14900
C1707       C  0.46883722  0.90178130  0.95774638    -0.31600
H1708       H  0.47306080  0.91359439  0.99760839     0.16900
C1709       C  0.54714022  0.81240516  0.85280347    -0.30500
N1710       N  0.57883669  0.80785647  0.89053627     0.13700
C1711       C  0.57295559  0.81812626  0.93931840    -0.30500
C1712       C  0.42464368  0.80288905  0.89168469    -0.30800
N1713       N  0.41994509  0.78045259  0.93191334     0.14200
H1714       H  0.40257619  0.80978834  0.85782758     0.16800
C1715       C  0.45230506  0.78352314  0.96985915    -0.30800
H1716       H  0.45608556  0.77281506  0.01083137     0.16800
H1717       H  0.59433539  0.82023892  0.97587369     0.16800
H1718       H  0.42050937  0.88580055  0.84113360     0.16900
H1719       H  0.54407340  0.80885736  0.80968395     0.16800
O1720       O  0.46795499  0.97586312  0.77973352    -0.80200
O1721       O  0.31030625  0.96255520  0.81532247    -0.64900
O1722       O  0.40171876  0.98566498  0.78054642    -1.11500
C1723       C  0.40367878  0.74721120  0.90715190     1.06700
O1724       O  0.30201847  0.68644856  0.78911921    -0.78100
O1725       O  0.34588234  0.74478540  0.78231520    -0.65700
Ni1726     Ni  0.43083575  0.94687815  0.80248767     1.34900
C1727       C  0.37329325  0.75030433  0.76071554     0.85400
O1728       O  0.35597450  0.92389771  0.75751554    -0.78600
O1729       O  0.41063134  0.92486033  0.73406611    -0.88900
C1730       C  0.28866776  0.98999596  0.79929566     0.85000
O1731       O  0.44244354  0.96626457  0.87309522    -0.67100
O1732       O  0.36833405  0.74514959  0.89367833    -0.86400
C1733       C  0.42196960  0.94434217  0.89312382     0.85800
C1734       C  0.37967355  0.90857035  0.73379883     1.07400
H1735       H  0.37308041  0.67112571  0.88433381     0.39200
O1736       O  0.36870756  0.67905334  0.84685368    -1.09100
O1737       O  0.40073869  0.72877837  0.77349460    -0.65700
Ni1738     Ni  0.41429295  0.69051646  0.83171803     1.26300
O1739       O  0.38719361  0.94194310  0.86780598    -0.66000
O1740       O  0.42485821  0.72691120  0.88682104    -0.78200
C1741       C  0.47775998  0.00963284  0.79035606     0.85200
O1742       O  0.46172301  0.69718214  0.81775336    -0.65400
Ni1743     Ni  0.33451764  0.71573945  0.84071187     1.27400
Ni1744     Ni  0.35931726  0.97001960  0.80122995     1.26100
H1745       H  0.39783110  0.99284496  0.74280337     0.39700
C1746       C  0.37526110  0.78952488  0.73158170     0.30700
C1747       C  0.37636140  0.86619320  0.72244175     0.30700
C1748       C  0.40862578  0.80977104  0.76358353    -0.05500
C1749       C  0.37772635  0.80566335  0.67323877    -0.06300
C1750       C  0.34165888  0.81053613  0.74068619    -0.06200
C1751       C  0.40979368  0.84760676  0.75816804    -0.05500
C1752       C  0.37571635  0.84616977  0.66845384    -0.06300
C1753       C  0.34302435  0.84879972  0.73907938    -0.06200
C1754       C  0.44661676  0.85750260  0.77385071    -0.31600
N1755       N  0.46491658  0.82922182  0.80232358     0.14900
C1756       C  0.44410659  0.79891471  0.78511050    -0.31600
H1757       H  0.45244510  0.77114717  0.79772170     0.16900
C1758       C  0.39728715  0.85784868  0.63396587    -0.30500
N1759       N  0.41562388  0.82917395  0.62078110     0.13700
C1760       C  0.40479122  0.79793321  0.64447930    -0.30500
C1761       C  0.30693669  0.86003096  0.72537037    -0.30800
N1762       N  0.28389292  0.83032647  0.71995651     0.14200
H1763       H  0.29805475  0.88800654  0.71469801     0.16800
C1764       C  0.30462821  0.79998858  0.72703363    -0.30800
H1765       H  0.29361475  0.77236245  0.71811418     0.16800
H1766       H  0.42057193  0.77281328  0.64993332     0.16800
H1767       H  0.45804857  0.88515692  0.77471662     0.16900
H1768       H  0.40641938  0.88621420  0.63084663     0.16800
C1769       C  0.51055074  0.01336326  0.72103843    -0.15800
C1770       C  0.50816289  0.02432950  0.76979025    -0.30900
H1771       H  0.48694182  0.00019529  0.69445634     0.13300
H1772       H  0.52917279  0.70490656  0.79500990     0.13800
C1773       C  0.01351723  0.82847753  0.72126763    -0.15800
C1774       C  0.00868231  0.83660027  0.77014053    -0.30900
H1775       H  0.99063256  0.81892613  0.68964913     0.13300
H1776       H  0.03134829  0.84653729  0.80178619     0.13800
loop_ 
_geom_bond_atom_site_label_1 
_geom_bond_atom_site_label_2 
_geom_bond_distance 
_geom_bond_site_symmetry_2 
_ccdc_geom_bond_type 
C1            C3   1.535   1_455  S
C1            C4   1.587       .  S
C1         C1189   1.586   1_445  S
C1          C369   1.585       .  S
C2            C8   1.523       .  S
C2            C7   1.525   1_655  S
C2          C598   1.549       .  S
C2           N59   1.505       .  S
C3           C11   1.399       .  A
C3            C6   1.367       .  A
C4         C1199   1.402       .  A
C4         C1191   1.434       .  A
C5          C593   1.583   1_655  S
C5           C19   1.418       .  A
C5            C8   1.393       .  A
C6         C1186   1.552       .  S
C6            C9   1.361       .  A
C7           C13   1.384       .  A
C7          C596   1.435       .  A
C8           C16   1.325       .  A
C9           N10   1.338       .  A
C9           H22   1.071       .  S
N10          C11   1.372       .  A
N10          C37   1.436       .  S
C11          H12   1.082       .  S
C13          N14   1.347       .  A
C13          H23   1.083       .  S
N14          C15   1.357       .  A
N14         N135   1.412       .  S
C15         C596   1.398       .  A
C15          H21   1.081       .  S
C16          N17   1.318       .  A
C16          H18   1.074       .  S
N17          C19   1.361       .  A
N17          C27   1.417       .  S
C19          H20   1.079       .  S
O24         Ni30   1.892       .  S
O24          C45   1.279       .  A
O25         Ni48   1.903       .  S
O25          C34   1.284       .  A
O26         Ni30   1.815       .  S
O26         Ni48   1.857       .  S
O26         Ni42   1.865       .  S
O26          H49   0.968       .  S
C27          O44   1.253       .  A
C27          O36   1.290       .  A
O28         Ni47   1.914       .  S
O28          C34   1.283       .  A
O29         Ni47   1.923       .  S
O29          C31   1.268       .  A
Ni30         O33   1.876       .  S
Ni30         O35   1.885       .  S
C31          C50   1.607       .  S
C31          O41   1.298       .  A
O32         Ni48   2.029       .  S
O32          C38   1.314       .  A
O33          C38   1.276       .  A
C34         N210   1.422       .  S
O35          C37   1.269       .  A
O36         Ni47   1.984       .  S
C37          O43   1.296       .  A
C38          C51   1.560       .  S
H39          O40   0.966       .  S
O40         Ni48   1.914       .  S
O40         Ni42   1.862       .  S
O40         Ni47   1.852       .  S
O41         Ni42   2.047       .  S
Ni42         O46   1.915       .  S
Ni42         O44   1.872       .  S
O43         Ni48   1.988       .  S
C45          O46   1.275       .  A
C45         C294   1.447   1_655  S
C50          C52   1.519       .  S
C50          C54   1.566       .  S
C50          C53   1.592       .  S
C51          C55   1.542       .  S
C51          C57   1.524       .  S
C51          C56   1.555       .  S
C52          C60   1.375       .  A
C52         C647   1.380       .  A
C53          C64   1.405       .  A
C53         C648   1.458       .  A
C54          C68   1.408       .  A
C54         C649   1.394       .  A
C55          C58   1.399       .  A
C55        C1236   1.380   1_545  A
C56          C62   1.375       .  A
C56        C1237   1.457   1_545  A
C57          C65   1.380       .  A
C57        C1238   1.393   1_545  A
C58        N1243   1.358   1_545  A
C58          H71   1.076       .  S
N59          C60   1.352       .  A
N59         C650   1.359       .  A
C60          H61   1.080       .  S
C62        N1247   1.344   1_545  A
C62          H72   1.083       .  S
N63          C64   1.368       .  A
N63         C654   1.345       .  A
N63          N86   1.415       .  S
C64          H70   1.082       .  S
C65        N1250   1.357   1_545  A
C65          H67   1.083       .  S
N66          C68   1.356       .  A
N66         C657   1.356       .  A
N66         C178   1.453       .  S
C68          H69   1.082       .  S
C73          C75   1.544       .  S
C73          C76   1.587   1_455  S
C73        C1261   1.579   1_545  S
C73         C297   1.589   1_554  S
C74          C80   1.527       .  S
C74          C79   1.523       .  S
C74         C670   1.558       .  S
C74         N131   1.501       .  S
C75          C83   1.402       .  A
C75          C78   1.371       .  A
C76        C1271   1.404       .  A
C76        C1263   1.428   1_655  A
C77         C665   1.581       .  S
C77          C91   1.419       .  A
C77          C80   1.393       .  A
C78        C1258   1.560       .  S
C78          C81   1.368       .  A
C79          C85   1.382   1_455  A
C79         C668   1.428   1_455  A
C80          C88   1.332       .  A
C81          N82   1.340       .  A
C81          H94   1.070       .  S
N82          C83   1.374       .  A
N82         C109   1.441       .  S
C83          H84   1.082       .  S
C85          N86   1.347       .  A
C85          H95   1.083       .  S
N86          C87   1.360       .  A
C87         C668   1.402       .  A
C87         H685   1.081       .  S
C88          N89   1.317       .  A
C88          H90   1.074       .  S
N89          C91   1.360       .  A
N89          C99   1.419       .  S
C91          H92   1.079       .  S
H93        C1271   1.081       .  S
O96        Ni102   1.896       .  S
O96         C117   1.276       .  A
O97        Ni120   1.931       .  S
O97         C106   1.295       .  A
O98        Ni102   1.809       .  S
O98        Ni120   1.867       .  S
O98        Ni114   1.865       .  S
O98         H121   0.968       .  S
C99         O116   1.252       .  A
C99         O108   1.291       .  A
O100       Ni119   1.921       .  S
O100        C106   1.283       .  A
O101       Ni119   1.923       .  S
O101        C103   1.265       .  A
Ni102       O105   1.876       .  S
Ni102       O107   1.883       .  S
C103        C122   1.609       .  S
C103        O113   1.295       .  A
O104       Ni120   2.045       .  S
O104        C110   1.319       .  A
O105        C110   1.276       .  A
C106        N282   1.437       .  S
O107        C109   1.266       .  A
O108       Ni119   1.991       .  S
C109        O115   1.301       .  A
C110        C123   1.570       .  S
H111        O112   0.966       .  S
O112       Ni120   1.918       .  S
O112       Ni114   1.872       .  S
O112       Ni119   1.855       .  S
O113       Ni114   2.049       .  S
Ni114       O118   1.909       .  S
Ni114       O116   1.873       .  S
O115       Ni120   2.006       .  S
C117        O118   1.274       .  A
C117        C293   1.435       .  S
C122        C124   1.518       .  S
C122        C126   1.560       .  S
C122        C125   1.593       .  S
C123        C127   1.540       .  S
C123        C129   1.517       .  S
C123        C128   1.554       .  S
C124        C132   1.373       .  A
C124        C719   1.381       .  A
C125        C136   1.407       .  A
C125        C720   1.459       .  A
C126        C140   1.405       .  A
C126        C721   1.396       .  A
C127        C130   1.394       .  A
C127       C1308   1.384   1_545  A
C128        C134   1.371       .  A
C128       C1309   1.460   1_545  A
C129        C137   1.373       .  A
C129       C1310   1.396   1_545  A
C130       N1315   1.353   1_545  A
C130        H143   1.075       .  S
N131        C132   1.352       .  A
N131        C722   1.355       .  A
C132        H133   1.081       .  S
C134       N1319   1.341   1_545  A
C134        H144   1.083       .  S
N135        C136   1.369       .  A
N135        C726   1.341       .  A
C136        H142   1.082       .  S
C137       N1322   1.354   1_545  A
C137        H139   1.083       .  S
N138        C140   1.347       .  A
N138        C729   1.354       .  A
N138        C250   1.438       .  S
C140        H141   1.081       .  S
C145        C147   1.532       .  S
C145        C149   1.597       .  S
C145        C148   1.563       .  S
C145        C513   1.560   1_554  S
C146        C150   1.585       .  S
C146        C152   1.552       .  S
C146        C151   1.529       .  S
C146        N203   1.486       .  S
C147        C155   1.403       .  A
C147        C150   1.372       .  A
C148        C159   1.397       .  A
C148        C151   1.418       .  A
C149        C163   1.434       .  A
C149        C152   1.390       .  A
C150        C153   1.367       .  A
C151        C157   1.391       .  A
C152        C160   1.334       .  A
C153        N154   1.337       .  A
C153        H166   1.069       .  S
N154        C155   1.372       .  A
N154        C181   1.439       .  S
C155        H156   1.082       .  S
C157        N158   1.348       .  A
C157        H167   1.083       .  S
N158        C159   1.351       .  A
N158        N279   1.413       .  S
C159        H165   1.080       .  S
C160        N161   1.343       .  A
C160        H162   1.078       .  S
N161        C163   1.367       .  A
N161        C171   1.457       .  S
C163        H164   1.075       .  S
O168       Ni174   1.914       .  S
O168        C189   1.261       .  A
O169       Ni192   1.960       .  S
O169        C178   1.300       .  A
O170       Ni174   1.850       .  S
O170       Ni192   1.895       .  S
O170       Ni778   1.850       .  S
O170        H193   0.966       .  S
C171        O188   1.253       .  A
C171        O180   1.278       .  A
O172       Ni191   1.928       .  S
O172       C1362   1.286   1_545  A
O173       Ni191   1.958       .  S
O173        C175   1.292       .  A
Ni174       O177   1.906       .  S
Ni174       O179   1.916       .  S
C175        C194   1.537       .  S
C175        O185   1.269       .  A
O176       Ni192   1.961       .  S
O176        C182   1.305       .  A
O177        C182   1.274       .  A
C178        O764   1.288       .  A
O179        C181   1.269       .  A
O180       Ni191   2.005       .  S
C181        O187   1.277       .  A
C182        C195   1.523       .  S
H183        O184   0.964       .  S
O184       Ni186   1.849   1_565  S
O184       Ni191   1.855   1_565  S
O184      Ni1376   1.903       .  S
O185       Ni186   1.935       .  S
Ni186       O190   1.870       .  S
Ni186       O188   1.844       .  S
Ni186      O1354   1.850   1_545  S
O187       Ni192   1.950       .  S
C189        O782   1.256       .  A
C189        C289   1.432       .  S
O190       C1373   1.255       .  A
Ni192       O776   1.905       .  S
C194        C196   1.515       .  S
C194        C198   1.525       .  S
C194        C197   1.580       .  S
C195        C199   1.545       .  S
C195        C201   1.511       .  S
C195        C200   1.546       .  S
C196        C204   1.372       .  A
C196        C199   1.364       .  A
C197        C208   1.400       .  A
C197        C200   1.453       .  A
C198        C212   1.384       .  A
C198        C201   1.387       .  A
C199        C202   1.399       .  A
C200        C206   1.369       .  A
C201        C209   1.368       .  A
C202        N203   1.359       .  A
C202        H215   1.076       .  S
N203        C204   1.346       .  A
C204        H205   1.069       .  S
C206        N207   1.341       .  A
C206        H216   1.083       .  S
N207        C208   1.363       .  A
N207        N230   1.408       .  S
C208        H214   1.082       .  S
C209        N210   1.348       .  A
C209        H211   1.082       .  S
N210        C212   1.345       .  A
C212        H213   1.083       .  S
C217        C219   1.609       .  S
C217        C221   1.573       .  S
C217        C220   1.554       .  S
C217        C441   1.563       .  S
C218        C222   1.517       .  S
C218        C224   1.505       .  S
C218        C223   1.513       .  S
C218        N275   1.481       .  S
C219        C227   1.429       .  A
C219        C222   1.412       .  A
C220        C231   1.389       .  A
C220        C223   1.381       .  A
C221        C235   1.401       .  A
C221        C224   1.366       .  A
C222        C225   1.368       .  A
C223        C229   1.378       .  A
C224        C232   1.367       .  A
C225        N226   1.321       .  A
C225        H238   1.072       .  S
N226        C227   1.379       .  A
N226        C253   1.450       .  S
C227        H228   1.082       .  S
C229        N230   1.356       .  A
C229        H239   1.082       .  S
N230        C231   1.358       .  A
C231        H237   1.081       .  S
C232        N233   1.332       .  A
C232        H234   1.077       .  S
N233        C235   1.369       .  A
N233        C243   1.431       .  S
C235        H236   1.082       .  S
O240       Ni246   1.903       .  S
O240        C261   1.285       .  A
O241       Ni264   1.950       .  S
O241        C250   1.293       .  A
O242       Ni246   1.793       .  S
O242       Ni264   1.847       .  S
O242       Ni850   1.884       .  S
O242        H265   0.967       .  S
C243        O260   1.283       .  A
C243        O252   1.287       .  A
O244       Ni263   1.901       .  S
O244       C1434   1.271   1_545  A
O245       Ni263   1.919       .  S
O245        C247   1.274       .  A
Ni246       O249   1.909       .  S
Ni246       O251   1.889       .  S
C247        C266   1.595       .  S
C247        O257   1.278       .  A
O248       Ni264   2.010       .  S
O248        C254   1.312       .  A
O249        C254   1.284       .  A
C250        O836   1.270       .  A
O251        C253   1.268       .  A
O252       Ni263   1.945       .  S
C253        O259   1.313       .  A
C254        C267   1.562       .  S
H255        O256   0.966       .  S
O256       Ni258   1.864       .  S
O256       Ni263   1.839       .  S
O256      Ni1448   1.910   1_545  S
O257       Ni258   1.993       .  S
Ni258       O262   1.894       .  S
Ni258       O260   1.909       .  S
Ni258      O1426   1.886   1_545  S
O259       Ni264   2.036       .  S
C261        O854   1.270       .  A
C261        C290   1.440       .  S
O262       C1445   1.270       .  A
Ni264       O848   1.908       .  S
C266        C268   1.509       .  S
C266        C270   1.543       .  S
C266        C269   1.601       .  S
C267        C271   1.527       .  S
C267        C273   1.520       .  S
C267        C272   1.558       .  S
C268        C276   1.376       .  A
C268        C271   1.376       .  A
C269        C280   1.407       .  A
C269        C272   1.473       .  A
C270        C284   1.395       .  A
C270        C273   1.382       .  A
C271        C274   1.385       .  A
C272        C278   1.373       .  A
C273        C281   1.380       .  A
C274        N275   1.347       .  A
C274        H287   1.080       .  S
N275        C276   1.352       .  A
C276        H277   1.080       .  S
C278        N279   1.342       .  A
C278        H288   1.083       .  S
N279        C280   1.367       .  A
C280        H286   1.082       .  S
C281        N282   1.355       .  A
C281        H283   1.082       .  S
N282        C284   1.345       .  A
C284        H285   1.082       .  S
C289        C290   1.327       .  D
C289        H291   1.089       .  S
C290        H884   1.088       .  S
H292       C1474   1.088       .  S
C293        C294   1.330       .  D
C293        H295   1.088   1_455  S
C294        H296   1.087       .  S
C297        C299   1.535   1_455  S
C297       C1485   1.589   1_445  S
C297        C300   1.572       .  S
C298        C894   1.568       .  S
C298        C304   1.534       .  S
C298        C303   1.542   1_655  S
C298        N355   1.504       .  S
C299        C307   1.407       .  A
C299        C302   1.373       .  A
C300       C1495   1.395       .  A
C300       C1487   1.433       .  A
C301        C889   1.596   1_655  S
C301        C315   1.429       .  A
C301        C304   1.371       .  A
C302       C1482   1.561   1_545  S
C302        C305   1.349       .  A
C303        C892   1.445       .  A
C303        C309   1.398       .  A
C304        C312   1.313       .  A
C305        N306   1.332       .  A
C305        H318   1.071       .  S
N306        C307   1.371       .  A
N306        C333   1.435       .  S
C307        H308   1.082       .  S
C309        N310   1.351       .  A
C309        H319   1.083       .  S
N310        C311   1.353       .  A
N310        N431   1.417       .  S
C311        C892   1.398       .  A
C311        H317   1.080       .  S
C312        N313   1.336       .  A
C312        H314   1.080       .  S
N313        C315   1.373       .  A
N313        C323   1.447       .  S
C315        H316   1.081       .  S
O320       Ni326   1.898       .  S
O320        C341   1.275       .  A
O321       Ni344   1.905       .  S
O321        C330   1.287       .  A
O322       Ni326   1.815       .  S
O322       Ni344   1.831       .  S
O322       Ni338   1.846       .  S
O322        H345   0.966       .  S
C323        O340   1.265       .  A
C323        O332   1.288       .  A
O324       Ni343   1.932       .  S
O324        C330   1.289       .  A
O325       Ni343   1.924       .  S
O325        C327   1.280       .  A
Ni326       O329   1.852       .  S
Ni326       O331   1.895       .  S
C327        C346   1.563       .  S
C327        O337   1.281       .  A
O328       Ni344   2.031       .  S
O328        C334   1.321       .  A
O329        C334   1.270       .  A
C330        N506   1.429       .  S
O331        C333   1.277       .  A
O332       Ni343   1.992       .  S
C333        O339   1.294       .  A
C334        C347   1.544       .  S
H335        O336   0.962       .  S
O336       Ni344   1.923       .  S
O336       Ni338   1.850       .  S
O336       Ni343   1.845       .  S
O337       Ni338   1.982       .  S
Ni338       O342   1.878       .  S
Ni338       O340   1.835       .  S
O339       Ni344   1.970       .  S
C341        O342   1.269       .  A
C341        C590   1.422       .  S
C346        C348   1.519       .  S
C346        C350   1.542       .  S
C346        C349   1.591       .  S
C347        C351   1.548       .  S
C347        C353   1.509       .  S
C347        C352   1.556       .  S
C348        C356   1.366       .  A
C348        C943   1.377       .  A
C349        C360   1.411       .  A
C349        C944   1.452       .  A
C350        C364   1.393       .  A
C350        C945   1.380       .  A
C351       C1532   1.380   1_545  A
C351        C354   1.404       .  A
C352       C1533   1.454   1_545  A
C352        C358   1.376       .  A
C353       C1534   1.386   1_545  A
C353        C361   1.373       .  A
C354       N1539   1.363   1_545  A
C354        H367   1.076       .  S
N355        C946   1.371       .  A
N355        C356   1.355       .  A
C356        H357   1.068       .  S
C358       N1543   1.342   1_545  A
C358        H368   1.082       .  S
N359        C950   1.340       .  A
N359        C360   1.369       .  A
N359        N382   1.416       .  S
C360        H366   1.082       .  S
C361       N1546   1.351   1_545  A
C361        H363   1.083       .  S
N362        C953   1.356       .  A
N362        C364   1.356       .  A
N362        C474   1.439       .  S
C364        H365   1.082       .  S
C369        C371   1.544       .  S
C369       C1557   1.581   1_545  S
C369        C372   1.584   1_455  S
C370        C966   1.564       .  S
C370        C376   1.531       .  S
C370        C375   1.532       .  S
C370        N427   1.499       .  S
C371        C379   1.405       .  A
C371        C374   1.369       .  A
C372       C1567   1.399       .  A
C372       C1559   1.429   1_655  A
C373        C961   1.586       .  S
C373        C387   1.421       .  A
C373        C376   1.396       .  A
C374       C1554   1.555       .  S
C374        C377   1.364       .  A
C375        C964   1.431   1_455  A
C375        C381   1.393   1_455  A
C376        C384   1.331       .  A
C377        N378   1.336       .  A
C377        H390   1.070       .  S
N378        C379   1.375       .  A
N378        C405   1.442       .  S
C379        H380   1.082       .  S
C381        N382   1.350       .  A
C381        H391   1.083       .  S
N382        C383   1.355       .  A
C383        C964   1.398       .  A
C383        H981   1.081       .  S
C384        N385   1.318       .  A
C384        H386   1.075       .  S
N385        C387   1.360       .  A
N385        C395   1.420       .  S
C387        H388   1.078       .  S
H389       C1567   1.081       .  S
O392       Ni398   1.891       .  S
O392        C413   1.272       .  A
O393       Ni416   1.925       .  S
O393        C402   1.295       .  A
O394       Ni398   1.812       .  S
O394       Ni416   1.853       .  S
O394       Ni410   1.864       .  S
O394        H417   0.968       .  S
C395        O412   1.250       .  A
C395        O404   1.292       .  A
O396       Ni415   1.920       .  S
O396        C402   1.284       .  A
O397       Ni415   1.924       .  S
O397        C399   1.266       .  A
Ni398       O401   1.864       .  S
Ni398       O403   1.889       .  S
C399        C418   1.608       .  S
C399        O409   1.291       .  A
O400       Ni416   2.043       .  S
O400        C406   1.319       .  A
O401        C406   1.272       .  A
C402        N578   1.433       .  S
O403        C405   1.273       .  A
O404       Ni415   1.995       .  S
C405        O411   1.302       .  A
C406        C419   1.565       .  S
H407        O408   0.966       .  S
O408       Ni416   1.915       .  S
O408       Ni410   1.861       .  S
O408       Ni415   1.849       .  S
O409       Ni410   2.039       .  S
Ni410       O414   1.888       .  S
Ni410       O412   1.865       .  S
O411       Ni416   2.001       .  S
C413        O414   1.268       .  A
C413        C589   1.421       .  S
C418        C420   1.513       .  S
C418        C422   1.556       .  S
C418        C421   1.604       .  S
C419        C423   1.545       .  S
C419        C425   1.513       .  S
C419        C424   1.555       .  S
C420        C428   1.369       .  A
C420       C1015   1.387       .  A
C421        C432   1.416       .  A
C421       C1016   1.459       .  A
C422        C436   1.401       .  A
C422       C1017   1.386       .  A
C423       C1604   1.386   1_545  A
C423        C426   1.399       .  A
C424       C1605   1.461   1_545  A
C424        C430   1.373       .  A
C425       C1606   1.391   1_545  A
C425        C433   1.372       .  A
C426       N1611   1.359   1_545  A
C426        H439   1.076       .  S
N427       C1018   1.360       .  A
N427        C428   1.346       .  A
C428        H429   1.079       .  S
C430       N1615   1.340   1_545  A
C430        H440   1.082       .  S
N431       C1022   1.337       .  A
N431        C432   1.372       .  A
C432        H438   1.082       .  S
C433       N1618   1.353   1_545  A
C433        H435   1.083       .  S
N434       C1025   1.353       .  A
N434        C436   1.350       .  A
N434        C546   1.434       .  S
C436        H437   1.082       .  S
C441        C443   1.530       .  S
C441        C445   1.600       .  S
C441        C444   1.559       .  S
C442        C446   1.584       .  S
C442        C448   1.552       .  S
C442        C447   1.532       .  S
C442        N499   1.489       .  S
C443        C451   1.403       .  A
C443        C446   1.373       .  A
C444        C455   1.395       .  A
C444        C447   1.420       .  A
C445        C459   1.438       .  A
C445        C448   1.391       .  A
C446        C449   1.366       .  A
C447        C453   1.388       .  A
C448        C456   1.335       .  A
C449        N450   1.336       .  A
C449        H462   1.070       .  S
N450        C451   1.369       .  A
N450        C477   1.438       .  S
C451        H452   1.082       .  S
C453        N454   1.347       .  A
C453        H463   1.083       .  S
N454        C455   1.352       .  A
N454        N575   1.411       .  S
C455        H461   1.081       .  S
C456        N457   1.342       .  A
C456        H458   1.077       .  S
N457        C459   1.368       .  A
N457        C467   1.460       .  S
C459        H460   1.074       .  S
O464       Ni470   1.916       .  S
O464        C485   1.262       .  A
O465       Ni488   1.941       .  S
O465        C474   1.294       .  A
O466       Ni470   1.850       .  S
O466       Ni488   1.891       .  S
O466      Ni1074   1.851       .  S
O466        H489   0.966       .  S
C467        O484   1.252       .  A
C467        O476   1.279       .  A
O468       Ni487   1.933       .  S
O468       C1658   1.289   1_545  A
O469       Ni487   1.967       .  S
O469        C471   1.293       .  A
Ni470       O473   1.907       .  S
Ni470       O475   1.923       .  S
C471        C490   1.545       .  S
C471        O481   1.270       .  A
O472       Ni488   1.959       .  S
O472        C478   1.304       .  A
O473        C478   1.275       .  A
C474       O1060   1.286       .  A
O475        C477   1.270       .  A
O476       Ni487   2.010       .  S
C477        O483   1.273       .  A
C478        C491   1.523       .  S
H479        O480   0.964       .  S
O480      Ni1672   1.904       .  S
O480       Ni482   1.848   1_565  S
O480       Ni487   1.853   1_565  S
O481       Ni482   1.939       .  S
Ni482       O486   1.866       .  S
Ni482       O484   1.845       .  S
Ni482      O1650   1.852   1_545  S
O483       Ni488   1.940       .  S
C485       O1078   1.255       .  A
C485        C585   1.430       .  S
O486       C1669   1.255       .  A
Ni488      O1072   1.903       .  S
C490        C492   1.517       .  S
C490        C494   1.531       .  S
C490        C493   1.585       .  S
C491        C495   1.545       .  S
C491        C497   1.515       .  S
C491        C496   1.548       .  S
C492        C500   1.373       .  A
C492        C495   1.363       .  A
C493        C504   1.403       .  A
C493        C496   1.451       .  A
C494        C508   1.386       .  A
C494        C497   1.389       .  A
C495        C498   1.401       .  A
C496        C502   1.372       .  A
C497        C505   1.374       .  A
C498        N499   1.358       .  A
C498        H511   1.075       .  S
N499        C500   1.348       .  A
C500        H501   1.069       .  S
C502        N503   1.343       .  A
C502        H512   1.083       .  S
N503        C504   1.366       .  A
N503        N526   1.411       .  S
C504        H510   1.082       .  S
C505        N506   1.349       .  A
C505        H507   1.082       .  S
N506        C508   1.348       .  A
C508        H509   1.083       .  S
C513        C515   1.607       .  S
C513        C517   1.573       .  S
C513        C516   1.558       .  S
C514        C518   1.518       .  S
C514        C520   1.504       .  S
C514        C519   1.513       .  S
C514        N571   1.480       .  S
C515        C523   1.428       .  A
C515        C518   1.412       .  A
C516        C527   1.393       .  A
C516        C519   1.382       .  A
C517        C531   1.401       .  A
C517        C520   1.363       .  A
C518        C521   1.367       .  A
C519        C525   1.376       .  A
C520        C528   1.368       .  A
C521        N522   1.321       .  A
C521        H534   1.071       .  S
N522        C523   1.378       .  A
N522        C549   1.449       .  S
C523        H524   1.082       .  S
C525        N526   1.355       .  A
C525        H535   1.083       .  S
N526        C527   1.363       .  A
C527        H533   1.081       .  S
C528        N529   1.333       .  A
C528        H530   1.077       .  S
N529        C531   1.368       .  A
N529        C539   1.429       .  S
C531        H532   1.082   1_556  S
O536       Ni542   1.901       .  S
O536        C557   1.285       .  A
O537       Ni560   1.943       .  S
O537        C546   1.290       .  A
O538       Ni542   1.794       .  S
O538       Ni560   1.848       .  S
O538      Ni1146   1.886       .  S
O538        H561   0.966       .  S
C539        O556   1.283       .  A
C539        O548   1.286       .  A
O540       Ni559   1.902       .  S
O540       C1730   1.272   1_545  A
O541       Ni559   1.919       .  S
O541        C543   1.275       .  A
Ni542       O545   1.911       .  S
Ni542       O547   1.890       .  S
C543        C562   1.595       .  S
C543        O553   1.278       .  A
O544       Ni560   2.011       .  S
O544        C550   1.312       .  A
O545        C550   1.284       .  A
C546       O1132   1.270       .  A
O547        C549   1.267       .  A
O548       Ni559   1.944       .  S
C549        O555   1.312       .  A
C550        C563   1.565       .  S
H551        O552   0.966       .  S
O552      Ni1744   1.908   1_545  S
O552       Ni554   1.863       .  S
O552       Ni559   1.839       .  S
O553       Ni554   1.992       .  S
Ni554       O558   1.890       .  S
Ni554       O556   1.905       .  S
Ni554      O1722   1.884   1_545  S
O555       Ni560   2.033       .  S
C557       O1150   1.269       .  A
C557        C586   1.439       .  S
O558       C1741   1.269       .  A
Ni560      O1144   1.911       .  S
C562        C564   1.508       .  S
C562        C566   1.538       .  S
C562        C565   1.600       .  S
C563        C567   1.525       .  S
C563        C569   1.521       .  S
C563        C568   1.558       .  S
C564        C572   1.375       .  A
C564        C567   1.375       .  A
C565        C576   1.404       .  A
C565        C568   1.473       .  A
C566        C580   1.393       .  A
C566        C569   1.384       .  A
C567        C570   1.384       .  A
C568        C574   1.372       .  A
C569        C577   1.379       .  A
C570        N571   1.347       .  A
C570        H583   1.080       .  S
N571        C572   1.353       .  A
C572        H573   1.080       .  S
C574        N575   1.343       .  A
C574        H584   1.083       .  S
N575        C576   1.366       .  A
C576        H582   1.082       .  S
C577        N578   1.354       .  A
C577        H579   1.083       .  S
N578        C580   1.342       .  A
C580        H581   1.083       .  S
C585        C586   1.326       .  D
C585        H587   1.089       .  S
C586       H1180   1.088       .  S
H588       C1770   1.088       .  S
C589        C590   1.320   1_455  D
C589        H591   1.090       .  S
C590        H592   1.088       .  S
C593        C595   1.538   1_455  S
C593        C596   1.583       .  S
C593        C961   1.589       .  S
C594       C1190   1.552       .  S
C594        C600   1.524       .  S
C594        C599   1.526   1_655  S
C594        N651   1.503       .  S
C595        C603   1.399       .  A
C595        C598   1.368       .  A
C597       C1185   1.584   1_655  S
C597        C611   1.419       .  A
C597        C600   1.390       .  A
C598        C601   1.362       .  A
C599       C1188   1.432       .  A
C599        C605   1.385       .  A
C600        C608   1.327       .  A
C601        N602   1.338       .  A
C601        H614   1.071       .  S
N602        C603   1.371       .  A
N602        C629   1.436       .  S
C603        H604   1.082       .  S
C605        N606   1.348       .  A
C605        H615   1.082       .  S
N606        C607   1.357       .  A
N606        N727   1.413       .  S
C607       C1188   1.398       .  A
C607        H613   1.081       .  S
C608        N609   1.319       .  A
C608        H610   1.074       .  S
N609        C611   1.362       .  A
N609        C619   1.420       .  S
C611        H612   1.079       .  S
O616       Ni622   1.893       .  S
O616        C637   1.279       .  A
O617       Ni640   1.906       .  S
O617        C626   1.285       .  A
O618       Ni622   1.812       .  S
O618       Ni640   1.856       .  S
O618       Ni634   1.865       .  S
O618        H641   0.968       .  S
C619        O636   1.254       .  A
C619        O628   1.290       .  A
O620       Ni639   1.920       .  S
O620        C626   1.284       .  A
O621       Ni639   1.920       .  S
O621        C623   1.268       .  A
Ni622       O625   1.878       .  S
Ni622       O627   1.886       .  S
C623        C642   1.599       .  S
C623        O633   1.295       .  A
O624       Ni640   2.032       .  S
O624        C630   1.315       .  A
O625        C630   1.276       .  A
C626        N802   1.426       .  S
O627        C629   1.270       .  A
O628       Ni639   1.988       .  S
C629        O635   1.297       .  A
C630        C643   1.564       .  S
H631        O632   0.966       .  S
O632       Ni640   1.917       .  S
O632       Ni634   1.865       .  S
O632       Ni639   1.854       .  S
O633       Ni634   2.034       .  S
Ni634       O638   1.918       .  S
Ni634       O636   1.873       .  S
O635       Ni640   1.989       .  S
C637        O638   1.275       .  A
C637        C886   1.453   1_655  S
C642        C644   1.517       .  S
C642        C646   1.561       .  S
C642        C645   1.588       .  S
C643        C647   1.542       .  S
C643        C649   1.525       .  S
C643        C648   1.558       .  S
C644        C652   1.373       .  A
C644       C1239   1.380       .  A
C645        C656   1.404       .  A
C645       C1240   1.458       .  A
C646        C660   1.405       .  A
C646       C1241   1.393       .  A
C647        C650   1.400       .  A
C648        C654   1.376       .  A
C649        C657   1.382       .  A
C650        H663   1.076       .  S
N651       C1242   1.359       .  A
N651        C652   1.351       .  A
C652        H653   1.080       .  S
C654        H664   1.083       .  S
N655       C1246   1.344       .  A
N655        C656   1.366       .  A
N655        N678   1.413       .  S
C656        H662   1.082       .  S
C657        H659   1.082       .  S
N658       C1249   1.355       .  A
N658        C660   1.354       .  A
N658        C770   1.449       .  S
C660        H661   1.082       .  S
C665        C667   1.550       .  S
C665        C668   1.583   1_455  S
C665        C889   1.591   1_554  S
C666       C1262   1.559       .  S
C666        C672   1.526       .  S
C666        C671   1.523       .  S
C666        N723   1.500       .  S
C667        C675   1.405       .  A
C667        C670   1.372       .  A
C669       C1257   1.575       .  S
C669        C683   1.416       .  A
C669        C672   1.394       .  A
C670        C673   1.369       .  A
C671       C1260   1.427   1_455  A
C671        C677   1.383   1_455  A
C672        C680   1.329       .  A
C673        N674   1.339       .  A
C673        H686   1.070       .  S
N674        C675   1.376       .  A
N674        C701   1.444       .  S
C675        H676   1.082       .  S
C677        N678   1.348       .  A
C677        H687   1.082       .  S
N678        C679   1.357       .  A
C679       C1260   1.399       .  A
C679       H1277   1.081       .  S
C680        N681   1.316       .  A
C680        H682   1.073       .  S
N681        C683   1.357       .  A
N681        C691   1.412       .  S
C683        H684   1.079       .  S
O688       Ni694   1.895       .  S
O688        C709   1.276       .  A
O689       Ni712   1.929       .  S
O689        C698   1.294       .  A
O690       Ni694   1.808       .  S
O690       Ni712   1.870       .  S
O690       Ni706   1.860       .  S
O690        H713   0.968       .  S
C691        O708   1.250       .  A
C691        O700   1.291       .  A
O692       Ni711   1.915       .  S
O692        C698   1.282       .  A
O693       Ni711   1.926       .  S
O693        C695   1.265       .  A
Ni694       O697   1.876       .  S
Ni694       O699   1.884       .  S
C695        C714   1.612       .  S
C695        O705   1.295       .  A
O696       Ni712   2.037       .  S
O696        C702   1.316       .  A
O697        C702   1.276       .  A
C698        N874   1.433       .  S
O699        C701   1.265       .  A
O700       Ni711   1.985       .  S
C701        O707   1.302       .  A
C702        C715   1.564       .  S
H703        O704   0.966       .  S
O704       Ni712   1.911       .  S
O704       Ni706   1.871       .  S
O704       Ni711   1.852       .  S
O705       Ni706   2.053       .  S
Ni706       O710   1.913       .  S
Ni706       O708   1.869       .  S
O707       Ni712   2.012       .  S
C709        O710   1.275       .  A
C709        C885   1.437       .  S
C714        C716   1.517       .  S
C714        C718   1.558       .  S
C714        C717   1.595       .  S
C715        C719   1.542       .  S
C715        C721   1.518       .  S
C715        C720   1.553       .  S
C716        C724   1.374       .  A
C716       C1311   1.383       .  A
C717        C728   1.408       .  A
C717       C1312   1.461       .  A
C718        C732   1.404       .  A
C718       C1313   1.395       .  A
C719        C722   1.396       .  A
C720        C726   1.370       .  A
C721        C729   1.375       .  A
C722        H735   1.074       .  S
N723       C1314   1.353       .  A
N723        C724   1.352       .  A
C724        H725   1.081       .  S
C726        H736   1.083       .  S
N727       C1318   1.342       .  A
N727        C728   1.369       .  A
C728        H734   1.082       .  S
C729        H731   1.083       .  S
N730       C1321   1.353       .  A
N730        C732   1.347       .  A
N730        C842   1.437       .  S
C732        H733   1.081       .  S
C737        C739   1.531       .  S
C737        C741   1.595       .  S
C737        C740   1.564       .  S
C737       C1105   1.555   1_554  S
C738        C742   1.585       .  S
C738        C744   1.552       .  S
C738        C743   1.529       .  S
C738        N795   1.485       .  S
C739        C747   1.403       .  A
C739        C742   1.372       .  A
C740        C751   1.397       .  A
C740        C743   1.419       .  A
C741        C755   1.434       .  A
C741        C744   1.388       .  A
C742        C745   1.368       .  A
C743        C749   1.390       .  A
C744        C752   1.334       .  A
C745        N746   1.338       .  A
C745        H758   1.069       .  S
N746        C747   1.372       .  A
N746        C773   1.439       .  S
C747        H748   1.082       .  S
C749        N750   1.347       .  A
C749        H759   1.083       .  S
N750        C751   1.352       .  A
N750        N871   1.413       .  S
C751        H757   1.081       .  S
C752        N753   1.343       .  A
C752        H754   1.078       .  S
N753        C755   1.366       .  A
N753        C763   1.457       .  S
C755        H756   1.074       .  S
O760       Ni766   1.912       .  S
O760        C781   1.260       .  A
O761       Ni784   1.956       .  S
O761        C770   1.299       .  A
O762       Ni766   1.846       .  S
O762       Ni784   1.891       .  S
O762      Ni1370   1.850       .  S
O762        H785   0.966       .  S
C763        O780   1.251       .  A
C763        O772   1.279       .  A
O764       Ni783   1.934       .  S
O765       Ni783   1.959       .  S
O765        C767   1.292       .  A
Ni766       O769   1.907       .  S
Ni766       O771   1.914       .  S
C767        C786   1.539       .  S
C767        O777   1.270       .  A
O768       Ni784   1.963       .  S
O768        C774   1.306       .  A
O769        C774   1.275       .  A
C770       O1356   1.287       .  A
O771        C773   1.268       .  A
O772       Ni783   2.008       .  S
C773        O779   1.277       .  A
C774        C787   1.525       .  S
H775        O776   0.964       .  S
O776       Ni778   1.849       .  S
O776       Ni783   1.855       .  S
O777       Ni778   1.937       .  S
Ni778       O782   1.866       .  S
Ni778       O780   1.840       .  S
O779       Ni784   1.952       .  S
C781       O1374   1.256       .  A
C781        C881   1.431       .  S
Ni784      O1368   1.905       .  S
C786        C788   1.514       .  S
C786        C790   1.527       .  S
C786        C789   1.581       .  S
C787        C791   1.543       .  S
C787        C793   1.512       .  S
C787        C792   1.549       .  S
C788        C796   1.371       .  A
C788        C791   1.363       .  A
C789        C800   1.400       .  A
C789        C792   1.454       .  A
C790        C804   1.385       .  A
C790        C793   1.387       .  A
C791        C794   1.399       .  A
C792        C798   1.371       .  A
C793        C801   1.370       .  A
C794        N795   1.358       .  A
C794        H807   1.076       .  S
N795        C796   1.347       .  A
C796        H797   1.070       .  S
C798        N799   1.342       .  A
C798        H808   1.083       .  S
N799        C800   1.363       .  A
N799        N822   1.409       .  S
C800        H806   1.082       .  S
C801        N802   1.349       .  A
C801        H803   1.082       .  S
N802        C804   1.346       .  A
C804        H805   1.083       .  S
C809        C811   1.607       .  S
C809        C813   1.572       .  S
C809        C812   1.556       .  S
C809       C1033   1.560       .  S
C810        C814   1.516       .  S
C810        C816   1.504       .  S
C810        C815   1.513       .  S
C810        N867   1.480       .  S
C811        C819   1.428       .  A
C811        C814   1.411       .  A
C812        C823   1.391       .  A
C812        C815   1.381       .  A
C813        C827   1.401       .  A
C813        C816   1.365       .  A
C814        C817   1.368       .  A
C815        C821   1.377       .  A
C816        C824   1.366       .  A
C817        N818   1.321       .  A
C817        H830   1.072       .  S
N818        C819   1.379       .  A
N818        C845   1.449       .  S
C819        H820   1.082       .  S
C821        N822   1.355       .  A
C821        H831   1.083       .  S
N822        C823   1.359       .  A
C823        H829   1.081       .  S
C824        N825   1.332       .  A
C824        H826   1.077       .  S
N825        C827   1.369       .  A
N825        C835   1.430       .  S
C827        H828   1.082       .  S
O832       Ni838   1.901       .  S
O832        C853   1.285       .  A
O833       Ni856   1.947       .  S
O833        C842   1.292       .  A
O834       Ni838   1.794       .  S
O834       Ni856   1.849       .  S
O834      Ni1442   1.887       .  S
O834        H857   0.966       .  S
C835        O852   1.286       .  A
C835        O844   1.285       .  A
O836       Ni855   1.898       .  S
O837       Ni855   1.920       .  S
O837        C839   1.276       .  A
Ni838       O841   1.909       .  S
Ni838       O843   1.889       .  S
C839        C858   1.594       .  S
C839        O849   1.277       .  A
O840       Ni856   2.014       .  S
O840        C846   1.312       .  A
O841        C846   1.284       .  A
C842       O1428   1.271       .  A
O843        C845   1.267       .  A
O844       Ni855   1.941       .  S
C845        O851   1.312       .  A
C846        C859   1.565       .  S
H847        O848   0.966       .  S
O848       Ni850   1.862       .  S
O848       Ni855   1.837       .  S
O849       Ni850   1.992       .  S
Ni850       O854   1.891       .  S
Ni850       O852   1.911       .  S
O851       Ni856   2.034       .  S
C853       O1446   1.270       .  A
C853        C882   1.439       .  S
Ni856      O1440   1.910       .  S
C858        C860   1.507       .  S
C858        C862   1.539       .  S
C858        C861   1.602       .  S
C859        C863   1.527       .  S
C859        C865   1.519       .  S
C859        C864   1.557       .  S
C860        C868   1.375       .  A
C860        C863   1.376       .  A
C861        C872   1.406       .  A
C861        C864   1.473       .  A
C862        C876   1.393       .  A
C862        C865   1.383       .  A
C863        C866   1.384       .  A
C864        C870   1.372       .  A
C865        C873   1.377       .  A
C866        N867   1.348       .  A
C866        H879   1.080       .  S
N867        C868   1.352       .  A
C868        H869   1.080       .  S
C870        N871   1.342       .  A
C870        H880   1.083       .  S
N871        C872   1.368       .  A
C872        H878   1.082       .  S
C873        N874   1.355       .  A
C873        H875   1.082       .  S
N874        C876   1.343       .  A
C876        H877   1.083       .  S
C881        C882   1.327       .  D
C881        H883   1.089       .  S
C882       H1476   1.088       .  S
C885        C886   1.332       .  D
C885        H887   1.088   1_455  S
C886        H888   1.087       .  S
C889        C891   1.533   1_455  S
C889        C892   1.582       .  S
C890       C1486   1.564       .  S
C890        C896   1.538       .  S
C890        C895   1.537   1_655  S
C890        N947   1.497       .  S
C891        C899   1.409       .  A
C891        C894   1.373       .  A
C893       C1481   1.594   1_655  S
C893        C907   1.430       .  A
C893        C896   1.373       .  A
C894        C897   1.352       .  A
C895       C1484   1.442       .  A
C895        C901   1.397       .  A
C896        C904   1.313       .  A
C897        N898   1.333       .  A
C897        H910   1.072       .  S
N898        C899   1.371       .  A
N898        C925   1.438       .  S
C899        H900   1.082       .  S
C901        N902   1.349       .  A
C901        H911   1.083       .  S
N902        C903   1.355       .  A
N902       N1023   1.418       .  S
C903       C1484   1.401       .  A
C903        H909   1.080       .  S
C904        N905   1.337       .  A
C904        H906   1.081       .  S
N905        C907   1.372       .  A
N905        C915   1.448       .  S
C907        H908   1.081       .  S
O912       Ni918   1.899       .  S
O912        C933   1.276       .  A
O913       Ni936   1.903       .  S
O913        C922   1.286       .  A
O914       Ni918   1.817       .  S
O914       Ni936   1.829       .  S
O914       Ni930   1.839       .  S
O914        H937   0.967       .  S
C915        O932   1.262       .  A
C915        O924   1.288       .  A
O916       Ni935   1.939       .  S
O916        C922   1.291       .  A
O917       Ni935   1.930       .  S
O917        C919   1.282       .  A
Ni918       O921   1.849       .  S
Ni918       O923   1.894       .  S
C919        C938   1.566       .  S
C919        O929   1.281       .  A
O920       Ni936   2.027       .  S
O920        C926   1.321       .  A
O921        C926   1.270       .  A
C922       N1098   1.430       .  S
O923        C925   1.275       .  A
O924       Ni935   1.998       .  S
C925        O931   1.294       .  A
C926        C939   1.536       .  S
H927        O928   0.962       .  S
O928       Ni936   1.921       .  S
O928       Ni930   1.849       .  S
O928       Ni935   1.849       .  S
O929       Ni930   1.982       .  S
Ni930       O934   1.874       .  S
Ni930       O932   1.827       .  S
O931       Ni936   1.974       .  S
C933        O934   1.267       .  A
C933       C1182   1.420       .  S
C938        C940   1.513       .  S
C938        C942   1.539       .  S
C938        C941   1.593       .  S
C939        C943   1.554       .  S
C939        C945   1.515       .  S
C939        C944   1.550       .  S
C940        C948   1.363       .  A
C940       C1535   1.374       .  A
C941        C952   1.410       .  A
C941       C1536   1.453       .  A
C942        C956   1.392       .  A
C942       C1537   1.386       .  A
C943        C946   1.411       .  A
C944        C950   1.375       .  A
C945        C953   1.371       .  A
C946        H959   1.078       .  S
N947       C1538   1.369       .  A
N947        C948   1.353       .  A
C948        H949   1.066       .  S
C950        H960   1.082       .  S
N951       C1542   1.341       .  A
N951        C952   1.369       .  A
N951        N974   1.415       .  S
C952        H958   1.082       .  S
C953        H955   1.083       .  S
N954       C1545   1.364       .  A
N954        C956   1.354       .  A
N954       C1066   1.448       .  S
C956        H957   1.082       .  S
C961        C963   1.543       .  S
C961        C964   1.575   1_455  S
C962       C1558   1.564       .  S
C962        C968   1.531       .  S
C962        C967   1.528       .  S
C962       N1019   1.494       .  S
C963        C971   1.408       .  A
C963        C966   1.371       .  A
C965       C1553   1.582       .  S
C965        C979   1.419       .  A
C965        C968   1.391       .  A
C966        C969   1.360       .  A
C967       C1556   1.430   1_455  A
C967        C973   1.390   1_455  A
C968        C976   1.330       .  A
C969        N970   1.335       .  A
C969        H982   1.070       .  S
N970        C971   1.375       .  A
N970        C997   1.442       .  S
C971        H972   1.082       .  S
C973        N974   1.348       .  A
C973        H983   1.083       .  S
N974        C975   1.356       .  A
C975       C1556   1.400       .  A
C975       H1573   1.081       .  S
C976        N977   1.320       .  A
C976        H978   1.076       .  S
N977        C979   1.360       .  A
N977        C987   1.421       .  S
C979        H980   1.078       .  S
O984       Ni990   1.881       .  S
O984       C1005   1.269       .  A
O985      Ni1008   1.920       .  S
O985        C994   1.293       .  A
O986       Ni990   1.812       .  S
O986      Ni1008   1.852       .  S
O986      Ni1002   1.857       .  S
O986       H1009   0.968       .  S
C987       O1004   1.252       .  A
C987        O996   1.292       .  A
O988      Ni1007   1.925       .  S
O988        C994   1.285       .  A
O989      Ni1007   1.927       .  S
O989        C991   1.270       .  A
Ni990       O993   1.853       .  S
Ni990       O995   1.889       .  S
C991       C1010   1.612       .  S
C991       O1001   1.292       .  A
O992      Ni1008   2.045       .  S
O992        C998   1.319       .  A
O993        C998   1.268       .  A
C994       N1170   1.432       .  S
O995        C997   1.271       .  A
O996      Ni1007   1.992       .  S
C997       O1003   1.300       .  A
C998       C1011   1.557       .  S
H999       O1000   0.965       .  S
O1000     Ni1008   1.917       .  S
O1000     Ni1002   1.863       .  S
O1000     Ni1007   1.849       .  S
O1001     Ni1002   2.038       .  S
Ni1002     O1006   1.891       .  S
Ni1002     O1004   1.859       .  S
O1003     Ni1008   1.998       .  S
C1005      O1006   1.271       .  A
C1005      C1181   1.420       .  S
C1010      C1012   1.511       .  S
C1010      C1014   1.554       .  S
C1010      C1013   1.608       .  S
C1011      C1015   1.548       .  S
C1011      C1017   1.507       .  S
C1011      C1016   1.552       .  S
C1012      C1020   1.368       .  A
C1012      C1607   1.386       .  A
C1013      C1024   1.417       .  A
C1013      C1608   1.461       .  A
C1014      C1028   1.401       .  A
C1014      C1609   1.388       .  A
C1015      C1018   1.402       .  A
C1016      C1022   1.371       .  A
C1017      C1025   1.367       .  A
C1018      H1031   1.074       .  S
N1019      C1610   1.355       .  A
N1019      C1020   1.347       .  A
C1020      H1021   1.079       .  S
C1022      H1032   1.082       .  S
N1023      C1614   1.338       .  A
N1023      C1024   1.373       .  A
C1024      H1030   1.082       .  S
C1025      H1027   1.083       .  S
N1026      C1617   1.359       .  A
N1026      C1028   1.349       .  A
N1026      C1138   1.439       .  S
C1028      H1029   1.082       .  S
C1033      C1035   1.532       .  S
C1033      C1037   1.593       .  S
C1033      C1036   1.558       .  S
C1034      C1038   1.584       .  S
C1034      C1040   1.551       .  S
C1034      C1039   1.534       .  S
C1034      N1091   1.489       .  S
C1035      C1043   1.404       .  A
C1035      C1038   1.372       .  A
C1036      C1047   1.395       .  A
C1036      C1039   1.423       .  A
C1037      C1051   1.431       .  A
C1037      C1040   1.391       .  A
C1038      C1041   1.367       .  A
C1039      C1045   1.388       .  A
C1040      C1048   1.334       .  A
C1041      N1042   1.336       .  A
C1041      H1054   1.069       .  S
N1042      C1043   1.370       .  A
N1042      C1069   1.440       .  S
C1043      H1044   1.082       .  S
C1045      N1046   1.347       .  A
C1045      H1055   1.083       .  S
N1046      C1047   1.351       .  A
N1046      N1167   1.411       .  S
C1047      H1053   1.081       .  S
C1048      N1049   1.343       .  A
C1048      H1050   1.078       .  S
N1049      C1051   1.365       .  A
N1049      C1059   1.455       .  S
C1051      H1052   1.074       .  S
O1056     Ni1062   1.917       .  S
O1056      C1077   1.262       .  A
O1057     Ni1080   1.956       .  S
O1057      C1066   1.300       .  A
O1058     Ni1062   1.848       .  S
O1058     Ni1080   1.890       .  S
O1058     Ni1666   1.845       .  S
O1058      H1081   0.966       .  S
C1059      O1076   1.253       .  A
C1059      O1068   1.277       .  A
O1060     Ni1079   1.922       .  S
O1061     Ni1079   1.964       .  S
O1061      C1063   1.292       .  A
Ni1062     O1065   1.906       .  S
Ni1062     O1067   1.921       .  S
C1063      C1082   1.543       .  S
C1063      O1073   1.270       .  A
O1064     Ni1080   1.960       .  S
O1064      C1070   1.306       .  A
O1065      C1070   1.274       .  A
C1066      O1652   1.285       .  A
O1067      C1069   1.270       .  A
O1068     Ni1079   2.000       .  S
C1069      O1075   1.276       .  A
C1070      C1083   1.522       .  S
H1071      O1072   0.964       .  S
O1072     Ni1074   1.843       .  S
O1072     Ni1079   1.852       .  S
O1073     Ni1074   1.940       .  S
Ni1074     O1078   1.862       .  S
Ni1074     O1076   1.843       .  S
O1075     Ni1080   1.949       .  S
C1077      O1670   1.253       .  A
C1077      C1177   1.428       .  S
Ni1080     O1664   1.903       .  S
C1082      C1084   1.517       .  S
C1082      C1086   1.532       .  S
C1082      C1085   1.583       .  S
C1083      C1087   1.546       .  S
C1083      C1089   1.514       .  S
C1083      C1088   1.549       .  S
C1084      C1092   1.373       .  A
C1084      C1087   1.363       .  A
C1085      C1096   1.403       .  A
C1085      C1088   1.452       .  A
C1086      C1100   1.386       .  A
C1086      C1089   1.388       .  A
C1087      C1090   1.402       .  A
C1088      C1094   1.372       .  A
C1089      C1097   1.375       .  A
C1090      N1091   1.359       .  A
C1090      H1103   1.076       .  S
N1091      C1092   1.348       .  A
C1092      H1093   1.070       .  S
C1094      N1095   1.343       .  A
C1094      H1104   1.083       .  S
N1095      C1096   1.365       .  A
N1095      N1118   1.411       .  S
C1096      H1102   1.082       .  S
C1097      N1098   1.347       .  A
C1097      H1099   1.082       .  S
N1098      C1100   1.350       .  A
C1100      H1101   1.083       .  S
C1105      C1107   1.604       .  S
C1105      C1109   1.574       .  S
C1105      C1108   1.557       .  S
C1106      C1110   1.518       .  S
C1106      C1112   1.504       .  S
C1106      C1111   1.514       .  S
C1106      N1163   1.479       .  S
C1107      C1115   1.427       .  A
C1107      C1110   1.410       .  A
C1108      C1119   1.393       .  A
C1108      C1111   1.381       .  A
C1109      C1123   1.402       .  A
C1109      C1112   1.362       .  A
C1110      C1113   1.369       .  A
C1111      C1117   1.377       .  A
C1112      C1120   1.367       .  A
C1113      N1114   1.321       .  A
C1113      H1126   1.072       .  S
N1114      C1115   1.377       .  A
N1114      C1141   1.448       .  S
C1115      H1116   1.082       .  S
C1117      N1118   1.355       .  A
C1117      H1127   1.082       .  S
N1118      C1119   1.363       .  A
C1119      H1125   1.081       .  S
C1120      N1121   1.333       .  A
C1120      H1122   1.077       .  S
N1121      C1123   1.368       .  A
N1121      C1131   1.428       .  S
C1123      H1124   1.082   1_556  S
O1128     Ni1134   1.899       .  S
O1128      C1149   1.285       .  A
O1129     Ni1152   1.953       .  S
O1129      C1138   1.293       .  A
O1130     Ni1134   1.795       .  S
O1130     Ni1152   1.850       .  S
O1130     Ni1738   1.888       .  S
O1130      H1153   0.967       .  S
C1131      O1148   1.283       .  A
C1131      O1140   1.287       .  A
O1132     Ni1151   1.898       .  S
O1133     Ni1151   1.923       .  S
O1133      C1135   1.275       .  A
Ni1134     O1137   1.909       .  S
Ni1134     O1139   1.888       .  S
C1135      C1154   1.598       .  S
C1135      O1145   1.278       .  A
O1136     Ni1152   2.013       .  S
O1136      C1142   1.313       .  A
O1137      C1142   1.284       .  A
C1138      O1724   1.269       .  A
O1139      C1141   1.267       .  A
O1140     Ni1151   1.944       .  S
C1141      O1147   1.312       .  A
C1142      C1155   1.565       .  S
H1143      O1144   0.966       .  S
O1144     Ni1146   1.860       .  S
O1144     Ni1151   1.839       .  S
O1145     Ni1146   1.993       .  S
Ni1146     O1150   1.890       .  S
Ni1146     O1148   1.906       .  S
O1147     Ni1152   2.034       .  S
C1149      O1742   1.269       .  A
C1149      C1178   1.437       .  S
Ni1152     O1736   1.909       .  S
C1154      C1156   1.509       .  S
C1154      C1158   1.540       .  S
C1154      C1157   1.601       .  S
C1155      C1159   1.525       .  S
C1155      C1161   1.518       .  S
C1155      C1160   1.557       .  S
C1156      C1164   1.375       .  A
C1156      C1159   1.376       .  A
C1157      C1168   1.405       .  A
C1157      C1160   1.473       .  A
C1158      C1172   1.393       .  A
C1158      C1161   1.386       .  A
C1159      C1162   1.383       .  A
C1160      C1166   1.371       .  A
C1161      C1169   1.378       .  A
C1162      N1163   1.347       .  A
C1162      H1175   1.080       .  S
N1163      C1164   1.353       .  A
C1164      H1165   1.079       .  S
C1166      N1167   1.342       .  A
C1166      H1176   1.083       .  S
N1167      C1168   1.367       .  A
C1168      H1174   1.082       .  S
C1169      N1170   1.352       .  A
C1169      H1171   1.083       .  S
N1170      C1172   1.343       .  A
C1172      H1173   1.083       .  S
C1177      C1178   1.327       .  D
C1177      H1179   1.089       .  S
C1178      H1772   1.088       .  S
C1181      C1182   1.320   1_455  D
C1181      H1183   1.090       .  S
C1182      H1184   1.088       .  S
C1185      C1187   1.537   1_455  S
C1185      C1188   1.581       .  S
C1185      C1553   1.582       .  S
C1186      C1192   1.524   1_545  S
C1186      C1191   1.524   1_655  S
C1186      N1243   1.502   1_545  S
C1187      C1195   1.400       .  A
C1187      C1190   1.368       .  A
C1189      C1203   1.421       .  A
C1189      C1192   1.393       .  A
C1190      C1193   1.362       .  A
C1191      C1197   1.385       .  A
C1192      C1200   1.325       .  A
C1193      N1194   1.337       .  A
C1193      H1206   1.070       .  S
N1194      C1195   1.372       .  A
N1194      C1221   1.437       .  S
C1195      H1196   1.082       .  S
C1197      N1198   1.346   1_545  A
C1197      H1207   1.083   1_545  S
N1198      C1199   1.360   1_565  A
N1198      N1319   1.415       .  S
C1199      H1205   1.081       .  S
C1200      N1201   1.318       .  A
C1200      H1202   1.074       .  S
N1201      C1203   1.361       .  A
N1201      C1211   1.420       .  S
C1203      H1204   1.078       .  S
O1208     Ni1214   1.891       .  S
O1208      C1229   1.279       .  A
O1209     Ni1232   1.902       .  S
O1209      C1218   1.284       .  A
O1210     Ni1214   1.814       .  S
O1210     Ni1232   1.856       .  S
O1210     Ni1226   1.864       .  S
O1210      H1233   0.968       .  S
C1211      O1228   1.254       .  A
C1211      O1220   1.291       .  A
O1212     Ni1231   1.918       .  S
O1212      C1218   1.284       .  A
O1213     Ni1231   1.923       .  S
O1213      C1215   1.269       .  A
Ni1214     O1217   1.876       .  S
Ni1214     O1219   1.887       .  S
C1215      C1234   1.605       .  S
C1215      O1225   1.296       .  A
O1216     Ni1232   2.030       .  S
O1216      C1222   1.315       .  A
O1217      C1222   1.275       .  A
C1218      N1394   1.423       .  S
O1219      C1221   1.269       .  A
O1220     Ni1231   1.988       .  S
C1221      O1227   1.297       .  A
C1222      C1235   1.560       .  S
H1223      O1224   0.965       .  S
O1224     Ni1232   1.914       .  S
O1224     Ni1226   1.862       .  S
O1224     Ni1231   1.851       .  S
O1225     Ni1226   2.039       .  S
Ni1226     O1230   1.911       .  S
Ni1226     O1228   1.867       .  S
O1227     Ni1232   1.990       .  S
C1229      O1230   1.274       .  A
C1229      C1478   1.449   1_655  S
C1234      C1236   1.516       .  S
C1234      C1238   1.563       .  S
C1234      C1237   1.596       .  S
C1235      C1239   1.542       .  S
C1235      C1241   1.522       .  S
C1235      C1240   1.556       .  S
C1236      C1244   1.371       .  A
C1237      C1248   1.408       .  A
C1238      C1252   1.405       .  A
C1239      C1242   1.399       .  A
C1240      C1246   1.374       .  A
C1241      C1249   1.379       .  A
C1242      H1255   1.076       .  S
N1243      C1244   1.351       .  A
C1244      H1245   1.080       .  S
C1246      H1256   1.083       .  S
N1247      C1248   1.370       .  A
N1247      N1270   1.416       .  S
C1248      H1254   1.082       .  S
C1249      H1251   1.083       .  S
N1250      C1252   1.354       .  A
N1250      C1362   1.450       .  S
C1252      H1253   1.082       .  S
C1257      C1259   1.548       .  S
C1257      C1260   1.579   1_455  S
C1257      C1481   1.584   1_554  S
C1258      C1264   1.528   1_545  S
C1258      C1263   1.520       .  S
C1258      N1315   1.498   1_545  S
C1259      C1267   1.404       .  A
C1259      C1262   1.371       .  A
C1261      C1275   1.417       .  A
C1261      C1264   1.395       .  A
C1262      C1265   1.371       .  A
C1263      C1269   1.382   1_455  A
C1264      C1272   1.332       .  A
C1265      N1266   1.340       .  A
C1265      H1278   1.069       .  S
N1266      C1267   1.375       .  A
N1266      C1293   1.443       .  S
C1267      H1268   1.082       .  S
C1269      N1270   1.346   1_545  A
C1269      H1279   1.083   1_545  S
N1270      C1271   1.362   1_565  A
C1272      N1273   1.317       .  A
C1272      H1274   1.074       .  S
N1273      C1275   1.357       .  A
N1273      C1283   1.415       .  S
C1275      H1276   1.078       .  S
O1280     Ni1286   1.890       .  S
O1280      C1301   1.275       .  A
O1281     Ni1304   1.930       .  S
O1281      C1290   1.294       .  A
O1282     Ni1286   1.805       .  S
O1282     Ni1304   1.870       .  S
O1282     Ni1298   1.861       .  S
O1282      H1305   0.968       .  S
C1283      O1300   1.250       .  A
C1283      O1292   1.292       .  A
O1284     Ni1303   1.922       .  S
O1284      C1290   1.284       .  A
O1285     Ni1303   1.927       .  S
O1285      C1287   1.266       .  A
Ni1286     O1289   1.875       .  S
Ni1286     O1291   1.883       .  S
C1287      C1306   1.616       .  S
C1287      O1297   1.297       .  A
O1288     Ni1304   2.041       .  S
O1288      C1294   1.318       .  A
O1289      C1294   1.274       .  A
C1290      N1466   1.436       .  S
O1291      C1293   1.263       .  A
O1292     Ni1303   1.989       .  S
C1293      O1299   1.302       .  A
C1294      C1307   1.566       .  S
H1295      O1296   0.966       .  S
O1296     Ni1304   1.913       .  S
O1296     Ni1298   1.872       .  S
O1296     Ni1303   1.853       .  S
O1297     Ni1298   2.055       .  S
Ni1298     O1302   1.911       .  S
Ni1298     O1300   1.868       .  S
O1299     Ni1304   2.014       .  S
C1301      O1302   1.274       .  A
C1301      C1477   1.433       .  S
C1306      C1308   1.515       .  S
C1306      C1310   1.560       .  S
C1306      C1309   1.600       .  S
C1307      C1311   1.540       .  S
C1307      C1313   1.516       .  S
C1307      C1312   1.554       .  S
C1308      C1316   1.371       .  A
C1309      C1320   1.411       .  A
C1310      C1324   1.405       .  A
C1311      C1314   1.395       .  A
C1312      C1318   1.372       .  A
C1313      C1321   1.373       .  A
C1314      H1327   1.074       .  S
N1315      C1316   1.351       .  A
C1316      H1317   1.081       .  S
C1318      H1328   1.083       .  S
N1319      C1320   1.372       .  A
C1320      H1326   1.082       .  S
C1321      H1323   1.083       .  S
N1322      C1324   1.349       .  A
N1322      C1434   1.439       .  S
C1324      H1325   1.081       .  S
C1329      C1331   1.531       .  S
C1329      C1333   1.597       .  S
C1329      C1332   1.561       .  S
C1329      C1697   1.559   1_554  S
C1330      C1334   1.586       .  S
C1330      C1336   1.552       .  S
C1330      C1335   1.530       .  S
C1330      N1387   1.486       .  S
C1331      C1339   1.404       .  A
C1331      C1334   1.373       .  A
C1332      C1343   1.395       .  A
C1332      C1335   1.419       .  A
C1333      C1347   1.435       .  A
C1333      C1336   1.390       .  A
C1334      C1337   1.368       .  A
C1335      C1341   1.390       .  A
C1336      C1344   1.335       .  A
C1337      N1338   1.337       .  A
C1337      H1350   1.069       .  S
N1338      C1339   1.371       .  A
N1338      C1365   1.440       .  S
C1339      H1340   1.082       .  S
C1341      N1342   1.348       .  A
C1341      H1351   1.083       .  S
N1342      C1343   1.351       .  A
N1342      N1463   1.412       .  S
C1343      H1349   1.080       .  S
C1344      N1345   1.343       .  A
C1344      H1346   1.077       .  S
N1345      C1347   1.366       .  A
N1345      C1355   1.457       .  S
C1347      H1348   1.073       .  S
O1352     Ni1358   1.915       .  S
O1352      C1373   1.260   1_565  A
O1353     Ni1376   1.960       .  S
O1353      C1362   1.300       .  A
O1354     Ni1358   1.850       .  S
O1354     Ni1376   1.896       .  S
O1354      H1377   0.966       .  S
C1355      O1372   1.251       .  A
C1355      O1364   1.279       .  A
O1356     Ni1375   1.929       .  S
O1357     Ni1375   1.960       .  S
O1357      C1359   1.293       .  A
Ni1358     O1361   1.906       .  S
Ni1358     O1363   1.917       .  S
C1359      C1378   1.541       .  S
C1359      O1369   1.270       .  A
O1360     Ni1376   1.961       .  S
O1360      C1366   1.306       .  A
O1361      C1366   1.274       .  A
O1363      C1365   1.269       .  A
O1364     Ni1375   2.007       .  S
C1365      O1371   1.277       .  A
C1366      C1379   1.526       .  S
H1367      O1368   0.964       .  S
O1368     Ni1370   1.849       .  S
O1368     Ni1375   1.852       .  S
O1369     Ni1370   1.938       .  S
Ni1370     O1374   1.866       .  S
Ni1370     O1372   1.841       .  S
O1371     Ni1376   1.951       .  S
C1373      C1473   1.433       .  S
C1378      C1380   1.515       .  S
C1378      C1382   1.526       .  S
C1378      C1381   1.582       .  S
C1379      C1383   1.544       .  S
C1379      C1385   1.511       .  S
C1379      C1384   1.548       .  S
C1380      C1388   1.372       .  A
C1380      C1383   1.365       .  A
C1381      C1392   1.402       .  A
C1381      C1384   1.454       .  A
C1382      C1396   1.384       .  A
C1382      C1385   1.387       .  A
C1383      C1386   1.399       .  A
C1384      C1390   1.371       .  A
C1385      C1393   1.368       .  A
C1386      N1387   1.358       .  A
C1386      H1399   1.076       .  S
N1387      C1388   1.347       .  A
C1388      H1389   1.070       .  S
C1390      N1391   1.342       .  A
C1390      H1400   1.083       .  S
N1391      C1392   1.364       .  A
N1391      N1414   1.410       .  S
C1392      H1398   1.082       .  S
C1393      N1394   1.348       .  A
C1393      H1395   1.082       .  S
N1394      C1396   1.346       .  A
C1396      H1397   1.083       .  S
C1401      C1403   1.607       .  S
C1401      C1405   1.572       .  S
C1401      C1404   1.557       .  S
C1401      C1625   1.559       .  S
C1402      C1406   1.517       .  S
C1402      C1408   1.504       .  S
C1402      C1407   1.514       .  S
C1402      N1459   1.480       .  S
C1403      C1411   1.428       .  A
C1403      C1406   1.411       .  A
C1404      C1415   1.392       .  A
C1404      C1407   1.381       .  A
C1405      C1419   1.401       .  A
C1405      C1408   1.363       .  A
C1406      C1409   1.369       .  A
C1407      C1413   1.378       .  A
C1408      C1416   1.365       .  A
C1409      N1410   1.321       .  A
C1409      H1422   1.072       .  S
N1410      C1411   1.379       .  A
N1410      C1437   1.449       .  S
C1411      H1412   1.082       .  S
C1413      N1414   1.355       .  A
C1413      H1423   1.082       .  S
N1414      C1415   1.360       .  A
C1415      H1421   1.081       .  S
C1416      N1417   1.332       .  A
C1416      H1418   1.076       .  S
N1417      C1419   1.368       .  A
N1417      C1427   1.429       .  S
C1419      H1420   1.081       .  S
O1424     Ni1430   1.904       .  S
O1424      C1445   1.285   1_565  A
O1425     Ni1448   1.950       .  S
O1425      C1434   1.292       .  A
O1426     Ni1430   1.794       .  S
O1426     Ni1448   1.850       .  S
O1426      H1449   0.966       .  S
C1427      O1444   1.285       .  A
C1427      O1436   1.285       .  A
O1428     Ni1447   1.898       .  S
O1429     Ni1447   1.921       .  S
O1429      C1431   1.275       .  A
Ni1430     O1433   1.910       .  S
Ni1430     O1435   1.889       .  S
C1431      C1450   1.596       .  S
C1431      O1441   1.279       .  A
O1432     Ni1448   2.012       .  S
O1432      C1438   1.312       .  A
O1433      C1438   1.284       .  A
O1435      C1437   1.267       .  A
O1436     Ni1447   1.941       .  S
C1437      O1443   1.313       .  A
C1438      C1451   1.565       .  S
H1439      O1440   0.966       .  S
O1440     Ni1442   1.862       .  S
O1440     Ni1447   1.837       .  S
O1441     Ni1442   1.995       .  S
Ni1442     O1446   1.892       .  S
Ni1442     O1444   1.913       .  S
O1443     Ni1448   2.034       .  S
C1445      C1474   1.442       .  S
C1450      C1452   1.508       .  S
C1450      C1454   1.541       .  S
C1450      C1453   1.601       .  S
C1451      C1455   1.526       .  S
C1451      C1457   1.520       .  S
C1451      C1456   1.557       .  S
C1452      C1460   1.375       .  A
C1452      C1455   1.376       .  A
C1453      C1464   1.406       .  A
C1453      C1456   1.474       .  A
C1454      C1468   1.394       .  A
C1454      C1457   1.384       .  A
C1455      C1458   1.384       .  A
C1456      C1462   1.372       .  A
C1457      C1465   1.379       .  A
C1458      N1459   1.347       .  A
C1458      H1471   1.080       .  S
N1459      C1460   1.353       .  A
C1460      H1461   1.080       .  S
C1462      N1463   1.341       .  A
C1462      H1472   1.083       .  S
N1463      C1464   1.367       .  A
C1464      H1470   1.082       .  S
C1465      N1466   1.354       .  A
C1465      H1467   1.082       .  S
N1466      C1468   1.345       .  A
C1468      H1469   1.083       .  S
C1473      C1474   1.327       .  D
C1473      H1475   1.089   1_545  S
C1477      C1478   1.330       .  D
C1477      H1479   1.088   1_455  S
C1478      H1480   1.087       .  S
C1481      C1483   1.531   1_455  S
C1481      C1484   1.585       .  S
C1482      C1488   1.527       .  S
C1482      C1487   1.536   1_665  S
C1482      N1539   1.507       .  S
C1483      C1491   1.403       .  A
C1483      C1486   1.367       .  A
C1485      C1499   1.420       .  A
C1485      C1488   1.396       .  A
C1486      C1489   1.359       .  A
C1487      C1493   1.392       .  A
C1488      C1496   1.329       .  A
C1489      N1490   1.337       .  A
C1489      H1502   1.072       .  S
N1490      C1491   1.372       .  A
N1490      C1517   1.436       .  S
C1491      H1492   1.082       .  S
C1493      N1494   1.350   1_545  A
C1493      H1503   1.082   1_545  S
N1494      C1495   1.353   1_565  A
N1494      N1615   1.414       .  S
C1495      H1501   1.081       .  S
C1496      N1497   1.319       .  A
C1496      H1498   1.074       .  S
N1497      C1499   1.361       .  A
N1497      C1507   1.421       .  S
C1499      H1500   1.079       .  S
O1504     Ni1510   1.895       .  S
O1504      C1525   1.279       .  A
O1505     Ni1528   1.903       .  S
O1505      C1514   1.283       .  A
O1506     Ni1510   1.813       .  S
O1506     Ni1528   1.853       .  S
O1506     Ni1522   1.860       .  S
O1506      H1529   0.969       .  S
C1507      O1524   1.252       .  A
C1507      O1516   1.291       .  A
O1508     Ni1527   1.918       .  S
O1508      C1514   1.283       .  A
O1509     Ni1527   1.915       .  S
O1509      C1511   1.264       .  A
Ni1510     O1513   1.871       .  S
Ni1510     O1515   1.881       .  S
C1511      C1530   1.591       .  S
C1511      O1521   1.295       .  A
O1512     Ni1528   2.016       .  S
O1512      C1518   1.310       .  A
O1513      C1518   1.276       .  A
C1514      N1690   1.425       .  S
O1515      C1517   1.268       .  A
O1516     Ni1527   1.992       .  S
C1517      O1523   1.298       .  A
C1518      C1531   1.546       .  S
H1519      O1520   0.966       .  S
O1520     Ni1528   1.912       .  S
O1520     Ni1522   1.865       .  S
O1520     Ni1527   1.855       .  S
O1521     Ni1522   2.033       .  S
Ni1522     O1526   1.915       .  S
Ni1522     O1524   1.873       .  S
O1523     Ni1528   1.989       .  S
C1525      O1526   1.275       .  A
C1525      C1774   1.448   1_655  S
C1530      C1532   1.516       .  S
C1530      C1534   1.569       .  S
C1530      C1533   1.590       .  S
C1531      C1535   1.553       .  S
C1531      C1537   1.536       .  S
C1531      C1536   1.547       .  S
C1532      C1540   1.373       .  A
C1533      C1544   1.410       .  A
C1534      C1548   1.409       .  A
C1535      C1538   1.409       .  A
C1536      C1542   1.373       .  A
C1537      C1545   1.383       .  A
C1538      H1551   1.077       .  S
N1539      C1540   1.348       .  A
C1540      H1541   1.079       .  S
C1542      H1552   1.082       .  S
N1543      C1544   1.369       .  A
N1543      N1566   1.416       .  S
C1544      H1550   1.082       .  S
C1545      H1547   1.083       .  S
N1546      C1548   1.359       .  A
N1546      C1658   1.449       .  S
C1548      H1549   1.082       .  S
C1553      C1555   1.539       .  S
C1553      C1556   1.581   1_455  S
C1554      C1560   1.525   1_545  S
C1554      C1559   1.526       .  S
C1554      N1611   1.504   1_545  S
C1555      C1563   1.403       .  A
C1555      C1558   1.368       .  A
C1557      C1571   1.418       .  A
C1557      C1560   1.394       .  A
C1558      C1561   1.367       .  A
C1559      C1565   1.388   1_455  A
C1560      C1568   1.329       .  A
C1561      N1562   1.339       .  A
C1561      H1574   1.069       .  S
N1562      C1563   1.375       .  A
N1562      C1589   1.442       .  S
C1563      H1564   1.082       .  S
C1565      N1566   1.349   1_545  A
C1565      H1575   1.082   1_545  S
N1566      C1567   1.358   1_565  A
C1568      N1569   1.316       .  A
C1568      H1570   1.073       .  S
N1569      C1571   1.359       .  A
N1569      C1579   1.416       .  S
C1571      H1572   1.077       .  S
O1576     Ni1582   1.897       .  S
O1576      C1597   1.277       .  A
O1577     Ni1600   1.928       .  S
O1577      C1586   1.294       .  A
O1578     Ni1582   1.808       .  S
O1578     Ni1600   1.867       .  S
O1578     Ni1594   1.863       .  S
O1578      H1601   0.968       .  S
C1579      O1596   1.251       .  A
C1579      O1588   1.291       .  A
O1580     Ni1599   1.916       .  S
O1580      C1586   1.281       .  A
O1581     Ni1599   1.923       .  S
O1581      C1583   1.263       .  A
Ni1582     O1585   1.874       .  S
Ni1582     O1587   1.882       .  S
C1583      C1602   1.609       .  S
C1583      O1593   1.296       .  A
O1584     Ni1600   2.040       .  S
O1584      C1590   1.316       .  A
O1585      C1590   1.276       .  A
C1586      N1762   1.433       .  S
O1587      C1589   1.266       .  A
O1588     Ni1599   1.988       .  S
C1589      O1595   1.302       .  A
C1590      C1603   1.562       .  S
H1591      O1592   0.966       .  S
O1592     Ni1600   1.914       .  S
O1592     Ni1594   1.872       .  S
O1592     Ni1599   1.853       .  S
O1593     Ni1594   2.054       .  S
Ni1594     O1598   1.912       .  S
Ni1594     O1596   1.872       .  S
O1595     Ni1600   2.009       .  S
C1597      O1598   1.274       .  A
C1597      C1773   1.437       .  S
C1602      C1604   1.518       .  S
C1602      C1606   1.563       .  S
C1602      C1605   1.593       .  S
C1603      C1607   1.543       .  S
C1603      C1609   1.519       .  S
C1603      C1608   1.550       .  S
C1604      C1612   1.374       .  A
C1605      C1616   1.409       .  A
C1606      C1620   1.407       .  A
C1607      C1610   1.400       .  A
C1608      C1614   1.371       .  A
C1609      C1617   1.374       .  A
C1610      H1623   1.074       .  S
N1611      C1612   1.350       .  A
C1612      H1613   1.081       .  S
C1614      H1624   1.082       .  S
N1615      C1616   1.368       .  A
C1616      H1622   1.082       .  S
C1617      H1619   1.083       .  S
N1618      C1620   1.351       .  A
N1618      C1730   1.441       .  S
C1620      H1621   1.081       .  S
C1625      C1627   1.531       .  S
C1625      C1629   1.592       .  S
C1625      C1628   1.560       .  S
C1626      C1630   1.583       .  S
C1626      C1632   1.550       .  S
C1626      C1631   1.532       .  S
C1626      N1683   1.486       .  S
C1627      C1635   1.403       .  A
C1627      C1630   1.373       .  A
C1628      C1639   1.396       .  A
C1628      C1631   1.423       .  A
C1629      C1643   1.429       .  A
C1629      C1632   1.389       .  A
C1630      C1633   1.367       .  A
C1631      C1637   1.387       .  A
C1632      C1640   1.335       .  A
C1633      N1634   1.336       .  A
C1633      H1646   1.070       .  S
N1634      C1635   1.370       .  A
N1634      C1661   1.438       .  S
C1635      H1636   1.082       .  S
C1637      N1638   1.346       .  A
C1637      H1647   1.083       .  S
N1638      C1639   1.352       .  A
N1638      N1759   1.411       .  S
C1639      H1645   1.081       .  S
C1640      N1641   1.343       .  A
C1640      H1642   1.078       .  S
N1641      C1643   1.365       .  A
N1641      C1651   1.454       .  S
C1643      H1644   1.074       .  S
O1648     Ni1654   1.915       .  S
O1648      C1669   1.261   1_565  A
O1649     Ni1672   1.951       .  S
O1649      C1658   1.296       .  A
O1650     Ni1654   1.851       .  S
O1650     Ni1672   1.892       .  S
O1650      H1673   0.966       .  S
C1651      O1668   1.252       .  A
C1651      O1660   1.277       .  A
O1652     Ni1671   1.925       .  S
O1653     Ni1671   1.961       .  S
O1653      C1655   1.293       .  A
Ni1654     O1657   1.909       .  S
Ni1654     O1659   1.919       .  S
C1655      C1674   1.539       .  S
C1655      O1665   1.268       .  A
O1656     Ni1672   1.954       .  S
O1656      C1662   1.303       .  A
O1657      C1662   1.275       .  A
O1659      C1661   1.269       .  A
O1660     Ni1671   2.000       .  S
C1661      O1667   1.275       .  A
C1662      C1675   1.523       .  S
H1663      O1664   0.964       .  S
O1664     Ni1666   1.846       .  S
O1664     Ni1671   1.855       .  S
O1665     Ni1666   1.935       .  S
Ni1666     O1670   1.856       .  S
Ni1666     O1668   1.842       .  S
O1667     Ni1672   1.946       .  S
C1669      C1769   1.431       .  S
C1674      C1676   1.514       .  S
C1674      C1678   1.527       .  S
C1674      C1677   1.584       .  S
C1675      C1679   1.544       .  S
C1675      C1681   1.514       .  S
C1675      C1680   1.547       .  S
C1676      C1684   1.370       .  A
C1676      C1679   1.361       .  A
C1677      C1688   1.402       .  A
C1677      C1680   1.452       .  A
C1678      C1692   1.386       .  A
C1678      C1681   1.389       .  A
C1679      C1682   1.399       .  A
C1680      C1686   1.370       .  A
C1681      C1689   1.370       .  A
C1682      N1683   1.358       .  A
C1682      H1695   1.076       .  S
N1683      C1684   1.348       .  A
C1684      H1685   1.069       .  S
C1686      N1687   1.342       .  A
C1686      H1696   1.083       .  S
N1687      C1688   1.365       .  A
N1687      N1710   1.410       .  S
C1688      H1694   1.082       .  S
C1689      N1690   1.348       .  A
C1689      H1691   1.082       .  S
N1690      C1692   1.346       .  A
C1692      H1693   1.083       .  S
C1697      C1699   1.608       .  S
C1697      C1701   1.573       .  S
C1697      C1700   1.557       .  S
C1698      C1702   1.518       .  S
C1698      C1704   1.503       .  S
C1698      C1703   1.511       .  S
C1698      N1755   1.480       .  S
C1699      C1707   1.429       .  A
C1699      C1702   1.412       .  A
C1700      C1711   1.392       .  A
C1700      C1703   1.381       .  A
C1701      C1715   1.401       .  A
C1701      C1704   1.363       .  A
C1702      C1705   1.369       .  A
C1703      C1709   1.375       .  A
C1704      C1712   1.366       .  A
C1705      N1706   1.321       .  A
C1705      H1718   1.071       .  S
N1706      C1707   1.379       .  A
N1706      C1733   1.450       .  S
C1707      H1708   1.082       .  S
C1709      N1710   1.354       .  A
C1709      H1719   1.082       .  S
N1710      C1711   1.362       .  A
C1711      H1717   1.081       .  S
C1712      N1713   1.332       .  A
C1712      H1714   1.077       .  S
N1713      C1715   1.368       .  A
N1713      C1723   1.428       .  S
C1715      H1716   1.082   1_556  S
O1720     Ni1726   1.905       .  S
O1720      C1741   1.286   1_565  A
O1721     Ni1744   1.952       .  S
O1721      C1730   1.293       .  A
O1722     Ni1726   1.794       .  S
O1722     Ni1744   1.850       .  S
O1722      H1745   0.966       .  S
C1723      O1740   1.283       .  A
C1723      O1732   1.286       .  A
O1724     Ni1743   1.896       .  S
O1725     Ni1743   1.919       .  S
O1725      C1727   1.274       .  A
Ni1726     O1729   1.911       .  S
Ni1726     O1731   1.889       .  S
C1727      C1746   1.597       .  S
C1727      O1737   1.277       .  A
O1728     Ni1744   2.007       .  S
O1728      C1734   1.311       .  A
O1729      C1734   1.285       .  A
O1731      C1733   1.267       .  A
O1732     Ni1743   1.941       .  S
C1733      O1739   1.314       .  A
C1734      C1747   1.564       .  S
H1735      O1736   0.966       .  S
O1736     Ni1738   1.862       .  S
O1736     Ni1743   1.839       .  S
O1737     Ni1738   1.992       .  S
Ni1738     O1742   1.890       .  S
Ni1738     O1740   1.908       .  S
O1739     Ni1744   2.038       .  S
C1741      C1770   1.439       .  S
C1746      C1748   1.509       .  S
C1746      C1750   1.540       .  S
C1746      C1749   1.601       .  S
C1747      C1751   1.527       .  S
C1747      C1753   1.521       .  S
C1747      C1752   1.555       .  S
C1748      C1756   1.375       .  A
C1748      C1751   1.375       .  A
C1749      C1760   1.405       .  A
C1749      C1752   1.472       .  A
C1750      C1764   1.394       .  A
C1750      C1753   1.386       .  A
C1751      C1754   1.383       .  A
C1752      C1758   1.370       .  A
C1753      C1761   1.379       .  A
C1754      N1755   1.347       .  A
C1754      H1767   1.080       .  S
N1755      C1756   1.353       .  A
C1756      H1757   1.080       .  S
C1758      N1759   1.341       .  A
C1758      H1768   1.083       .  S
N1759      C1760   1.368       .  A
C1760      H1766   1.082       .  S
C1761      N1762   1.354       .  A
C1761      H1763   1.082       .  S
N1762      C1764   1.341       .  A
C1764      H1765   1.082       .  S
C1769      C1770   1.326       .  D
C1769      H1771   1.089       .  S
C1773      C1774   1.329       .  D
C1773      H1775   1.087   1_455  S
C1774      H1776   1.087       .  S
