geometry optimzed in LAMMPS
_audit_creation_date              2020-11-30 
_audit_creation_method            'lammps2cif' 
_symmetry_space_group_name_H-M    'P1' 
_symmetry_Int_Tables_number       1 
_symmetry_cell_setting            triclinic 
loop_ 
_symmetry_equiv_pos_as_xyz 
  x,y,z 
_cell_length_a                    46.15375052472231 
_cell_length_b                    46.17354547065939 
_cell_length_c                    46.65859341327968 
_cell_angle_alpha                 90.02688123355377 
_cell_angle_beta                  90.1144414446328 
_cell_angle_gamma                 90.07166476577166 
loop_ 
_atom_site_label 
_atom_site_type_symbol 
_atom_site_fract_x 
_atom_site_fract_y 
_atom_site_fract_z 
_atom_site_charge 
C1          C  0.70797002  0.70821740  0.74636688     0.03120
C2          C  0.73251645  0.69568867  0.73385803    -0.13030
C3          C  0.74408610  0.70725929  0.70860143     0.00620
C4          C  0.73112902  0.73154415  0.69595358    -0.11550
C5          C  0.70676928  0.74434389  0.70857776     0.03110
C6          C  0.69531508  0.73272555  0.73386259    -0.10980
H7          H  0.74138000  0.67584444  0.74265257     0.08710
H8          H  0.73906213  0.73953767  0.67557391     0.06240
H9          H  0.67544010  0.74148888  0.74265905     0.06080
C10         C  0.30038513  0.70823300  0.26051565     0.03120
C11         C  0.31217418  0.73299854  0.27343328    -0.13030
C12         C  0.30011772  0.74397948  0.29873213     0.00620
C13         C  0.27592056  0.73034454  0.31087589    -0.11550
C14         C  0.26374385  0.70584223  0.29777775     0.03110
C15         C  0.27601957  0.69484339  0.27258963    -0.10980
H16         H  0.33192269  0.74242757  0.26499906     0.08710
H17         H  0.26751073  0.73788558  0.33123534     0.06240
H18         H  0.26781389  0.67483758  0.26346998     0.06080
C19         C  0.70727987  0.26225478  0.70862457     0.03120
C20         C  0.69546989  0.27277127  0.73421526    -0.13030
C21         C  0.70696619  0.29768527  0.74708338     0.00620
C22         C  0.73093278  0.31157046  0.73476524    -0.11550
C23         C  0.74304637  0.30092749  0.70935666     0.03110
C24         C  0.73105627  0.27637042  0.69623176    -0.10980
H25         H  0.67593767  0.26302021  0.74278807     0.08710
H26         H  0.73890711  0.33167250  0.74387636     0.06240
H27         H  0.73927686  0.26913184  0.67568861     0.06080
C28         C  0.29942338  0.26373319  0.70750720     0.03120
C29         C  0.27455557  0.27612584  0.69543102    -0.13030
C30         C  0.26156283  0.30022273  0.70834412     0.00620
C31         C  0.27327237  0.31172551  0.73362901    -0.11550
C32         C  0.29833901  0.29964981  0.74563957     0.03110
C33         C  0.31135528  0.27561151  0.73255442    -0.10980
H34         H  0.26632904  0.26809741  0.67513758     0.08710
H35         H  0.26422283  0.33135890  0.74267959     0.06240
H36         H  0.33161428  0.26722177  0.74090385     0.06080
C37         C  0.26338726  0.70569206  0.70943591     0.03120
C38         C  0.27452094  0.73041720  0.69595222    -0.13030
C39         C  0.29896559  0.74444844  0.70718530     0.00620
C40         C  0.31219528  0.73378347  0.73209422    -0.11550
C41         C  0.30129528  0.70892168  0.74551356     0.03110
C42         C  0.27680565  0.69499189  0.73421137    -0.10980
H43         H  0.26520542  0.73772628  0.67586785     0.08710
H44         H  0.33206610  0.74361240  0.73985858     0.06240
H45         H  0.26929475  0.67488891  0.74364867     0.06080
C46         C  0.74307674  0.30088169  0.29851783     0.03120
C47         C  0.73112237  0.31132597  0.27291035    -0.13030
C48         C  0.70697557  0.29758905  0.26067121     0.00620
C49         C  0.69522811  0.27294194  0.27374651    -0.11550
C50         C  0.70696850  0.26254858  0.29945573     0.03110
C51         C  0.73082204  0.27660820  0.31185713    -0.10980
H52         H  0.73933594  0.33121394  0.26360101     0.08710
H53         H  0.67565591  0.26322647  0.26513619     0.06240
H54         H  0.73901415  0.26946028  0.33246809     0.06080
O55         O  0.53330013  0.53536400  0.22317038    -0.72950
O56         O  0.47382109  0.46942988  0.22302959    -0.73930
O57         O  0.53650075  0.47280948  0.22315219    -0.62550
O58         O  0.47065762  0.53215850  0.22307988    -0.70960
O59         O  0.47111975  0.52966996  0.17558704    -0.70520
O60         O  0.53600861  0.47508740  0.17564170    -0.61770
O61         O  0.47621087  0.46979046  0.17553289    -0.74280
O62         O  0.53092300  0.53470271  0.17566928    -0.73060
Cu63       Cu  0.50353242  0.50242959  0.22512251     1.04560
Cu64       Cu  0.50352251  0.50230965  0.17428529     1.04330
C65         C  0.54123358  0.54522956  0.19874014     0.93250
C66         C  0.46613404  0.45919878  0.19862241     0.92380
C67         C  0.54668574  0.46513192  0.19877211     0.84530
C68         C  0.46070639  0.54003014  0.19863838     0.90800
N69         N  0.32797855  0.33366579  0.19685808    -0.27300
N70         N  0.34287714  0.34666151  0.21757188    -0.35160
C71         C  0.33407436  0.33636638  0.24299849     0.01040
C72         C  0.31273934  0.31606618  0.23826269     0.07070
C73         C  0.30924634  0.31480069  0.20887153    -0.06030
H74         H  0.34285350  0.34297929  0.26350466     0.07730
H75         H  0.29454961  0.30093266  0.19706644     0.08940
Cu76       Cu  0.37591150  0.37692497  0.21294692     0.44170
Cu77       Cu  0.33406994  0.34021261  0.15288308     0.41990
Cu78       Cu  0.39811513  0.38010587  0.14109678     0.43880
N79         N  0.41030533  0.40290935  0.20036456    -0.34680
N80         N  0.41840636  0.40278266  0.17326944    -0.28940
C81         C  0.43977976  0.42188859  0.16953881    -0.05040
C82         C  0.44570635  0.43497959  0.19547560     0.07180
C83         C  0.42667519  0.42238909  0.21484884     0.00970
H84         H  0.44949960  0.42677498  0.14902203     0.08620
H85         H  0.42410921  0.42775814  0.23728867     0.07700
N86         N  0.37355867  0.36385765  0.10800034    -0.36130
N87         N  0.34912416  0.34948090  0.11165863    -0.28310
C88         C  0.33756760  0.34373650  0.08564344    -0.03550
C89         C  0.35587150  0.35506394  0.06475374     0.05060
C90         C  0.37830207  0.36773017  0.07993897     0.03150
H91         H  0.31696971  0.33305416  0.08229359     0.08260
H92         H  0.39660935  0.37943143  0.07121739     0.07090
N93         N  0.33422738  0.67740910  0.19701070    -0.27300
N94         N  0.34732923  0.66269766  0.21776545    -0.35160
C95         C  0.33718503  0.67176608  0.24316839     0.01040
C96         C  0.31691240  0.69305927  0.23833590     0.07070
C97         C  0.31546567  0.69622807  0.20895203    -0.06030
H98         H  0.34394047  0.66325765  0.26372485     0.07730
H99         H  0.30160625  0.71084615  0.19709251     0.08940
Cu100      Cu  0.37791641  0.62990521  0.21333665     0.44170
Cu101      Cu  0.34055915  0.67155344  0.15302593     0.41990
Cu102      Cu  0.38615683  0.61219824  0.14073807     0.43880
N103        N  0.40532412  0.59672726  0.20043933    -0.34680
N104        N  0.40715723  0.59052224  0.17291238    -0.28940
C105        C  0.42621666  0.56921287  0.16904405    -0.05040
C106        C  0.43732910  0.56133260  0.19534130     0.07180
C107        C  0.42360822  0.57919395  0.21507891     0.00970
H108        H  0.43223991  0.56068797  0.14829796     0.08620
H109        H  0.42717867  0.57994990  0.23800632     0.07700
N110        N  0.36749496  0.63492026  0.10783689    -0.36130
N111        N  0.35048128  0.65752168  0.11165725    -0.28310
C112        C  0.34182724  0.66724028  0.08571900    -0.03550
C113        C  0.35377187  0.64939614  0.06485199     0.05060
C114        C  0.37021504  0.62950093  0.07977232     0.03150
H115        H  0.32756504  0.68548937  0.08230655     0.08260
H116        H  0.38341432  0.61234865  0.07090433     0.07090
N117        N  0.67280781  0.32803966  0.19706335    -0.27300
N118        N  0.65968189  0.34265676  0.21780956    -0.35160
C119        C  0.66992009  0.33366858  0.24321599     0.01040
C120        C  0.69031299  0.31251711  0.23840007     0.07070
C121        C  0.69171281  0.30932467  0.20901053    -0.06030
H122        H  0.66322416  0.34221145  0.26375663     0.07730
H123        H  0.70568699  0.29484590  0.19716293     0.08940
Cu124      Cu  0.62934900  0.37554241  0.21324987     0.44170
Cu125      Cu  0.66638949  0.33440781  0.15317678     0.41990
Cu126      Cu  0.62615772  0.39806092  0.14142499     0.43880
N127        N  0.60325483  0.40978362  0.20064958    -0.34680
N128        N  0.60338099  0.41798906  0.17357516    -0.28940
C129        C  0.58416063  0.43920334  0.16980845    -0.05040
C130        C  0.57099531  0.44491094  0.19569903     0.07180
C131        C  0.58365974  0.42593295  0.21509170     0.00970
H132        H  0.57925537  0.44895896  0.14929030     0.08620
H133        H  0.57826169  0.42324063  0.23750245     0.07700
N134        N  0.64254858  0.37380046  0.10834812    -0.36130
N135        N  0.65712336  0.34952458  0.11203692    -0.28310
C136        C  0.66301988  0.33809160  0.08606177    -0.03550
C137        C  0.65156617  0.35631015  0.06517319     0.05060
C138        C  0.63866346  0.37856005  0.08028114     0.03150
H139        H  0.67389468  0.31763944  0.08273339     0.08260
H140        H  0.62680942  0.39673874  0.07150719     0.07090
N141        N  0.67566864  0.67522696  0.19777657    -0.27300
N142        N  0.66130564  0.66169016  0.21846388    -0.35160
C143        C  0.67078656  0.67139267  0.24393310     0.01040
C144        C  0.69199193  0.69181432  0.23919472     0.07070
C145        C  0.69467348  0.69382505  0.20981275    -0.06030
H146        H  0.66276328  0.66409030  0.26447299     0.07730
H147        H  0.70925287  0.70777501  0.19802852     0.08940
Cu148      Cu  0.62897275  0.63054788  0.21385809     0.44170
Cu149      Cu  0.66980887  0.66898986  0.15379912     0.41990
Cu150      Cu  0.61349500  0.61972393  0.14093709     0.43880
N151        N  0.59701539  0.60171212  0.20070722    -0.34680
N152        N  0.59168888  0.59886930  0.17306817    -0.28940
C153        C  0.57097211  0.57912725  0.16909905    -0.05040
C154        C  0.56254536  0.56863440  0.19544526     0.07180
C155        C  0.57948365  0.58341499  0.21531985     0.00970
H156        H  0.56310910  0.57236184  0.14828641     0.08620
H157        H  0.57949789  0.58070301  0.23836521     0.07700
N158        N  0.63687780  0.63790703  0.10827604    -0.36130
N159        N  0.65807467  0.65665330  0.11236362    -0.28310
C160        C  0.66906409  0.66411787  0.08660325    -0.03550
C161        C  0.65422598  0.64872823  0.06557990     0.05060
C162        C  0.63378888  0.63268507  0.08019383     0.03150
H163        H  0.68671281  0.67919785  0.08342411     0.08260
H164        H  0.61759891  0.61839085  0.07109490     0.07090
O165        O  0.47104125  0.52954131  0.83105513    -0.72950
O166        O  0.53707071  0.47620109  0.83073363    -0.73930
O167        O  0.53082026  0.53565672  0.83120687    -0.62550
O168        O  0.47736414  0.46972633  0.83063886    -0.70960
O169        O  0.47479101  0.46976625  0.78313913    -0.70520
O170        O  0.53336566  0.53646374  0.78372366    -0.61770
O171        O  0.53735594  0.47407526  0.78320941    -0.74280
O172        O  0.47074994  0.53247104  0.78358504    -0.73060
Cu173      Cu  0.50401447  0.50277074  0.83223852     1.04560
Cu174      Cu  0.50400368  0.50320703  0.78140438     1.04330
C175        C  0.46057678  0.53996953  0.80801974     0.93250
C176        C  0.54783322  0.46655289  0.80754184     0.92380
C177        C  0.54115986  0.54629411  0.80825080     0.84530
C178        C  0.46743577  0.45913511  0.80743795     0.90800
N179        N  0.32937937  0.33396268  0.80905302    -0.27300
N180        N  0.34479248  0.34607611  0.78826032    -0.35160
C181        C  0.33601391  0.33536242  0.76294856     0.01040
C182        C  0.31412391  0.31573006  0.76784283     0.07070
C183        C  0.31024048  0.31535060  0.79719892    -0.06030
H184        H  0.34496397  0.34146848  0.74240110     0.07730
H185        H  0.29489295  0.30234569  0.80908846     0.08940
Cu186      Cu  0.37802513  0.37613879  0.79269955     0.44170
Cu187      Cu  0.33523601  0.34147912  0.85294152     0.41990
Cu188      Cu  0.40092990  0.37885228  0.86446971     0.43880
N189        N  0.41255592  0.40197891  0.80528079    -0.34680
N190        N  0.42106801  0.40150910  0.83228247    -0.28940
C191        C  0.44226467  0.42081227  0.83609804    -0.05040
C192        C  0.44761620  0.43440587  0.81032742     0.07180
C193        C  0.42846322  0.42188448  0.79094929     0.00970
H194        H  0.45209495  0.42563417  0.85662522     0.08620
H195        H  0.42538351  0.42768842  0.76867139     0.07700
N196        N  0.37532587  0.36482119  0.89767627    -0.36130
N197        N  0.35025286  0.35152472  0.89407281    -0.28310
C198        C  0.33822270  0.34712895  0.92007506    -0.03550
C199        C  0.35654000  0.35878299  0.94081428     0.05060
C200        C  0.37999307  0.36933202  0.92568416     0.03150
H201        H  0.31751100  0.33669906  0.92362470     0.08260
H202        H  0.39924323  0.37959491  0.93434687     0.07090
N203        N  0.33637180  0.67918472  0.80895436    -0.27300
N204        N  0.34909245  0.66411141  0.78827109    -0.35160
C205        C  0.33864752  0.67289033  0.76284725     0.01040
C206        C  0.31859095  0.69440149  0.76760996     0.07070
C207        C  0.31755285  0.69794719  0.79696834    -0.06030
H208        H  0.34489448  0.66390268  0.74235462     0.07730
H209        H  0.30379525  0.71265450  0.80879181     0.08940
Cu210      Cu  0.37913418  0.63086831  0.79307820     0.44170
Cu211      Cu  0.34310422  0.67357325  0.85290423     0.41990
Cu212      Cu  0.38579230  0.61194293  0.86576726     0.43880
N213        N  0.40543384  0.59683717  0.80614611    -0.34680
N214        N  0.40656652  0.59002720  0.83357831    -0.28940
C215        C  0.42530446  0.56839769  0.83744416    -0.05040
C216        C  0.43691838  0.56096950  0.81125601     0.07180
C217        C  0.42382541  0.57940437  0.79159512     0.00970
H218        H  0.43097889  0.55952556  0.85816088     0.08620
H219        H  0.42807158  0.58076507  0.76882438     0.07700
N220        N  0.36881433  0.63632357  0.89843979    -0.36130
N221        N  0.35306303  0.65978681  0.89434665    -0.28310
C222        C  0.34520112  0.67042421  0.92014798    -0.03550
C223        C  0.35679723  0.65263404  0.94129984     0.05060
C224        C  0.37147283  0.63125754  0.92658740     0.03150
H225        H  0.33133572  0.68902829  0.92321964     0.08260
H226        H  0.38307203  0.61308446  0.93570315     0.07090
N227        N  0.67220071  0.32833006  0.81016148    -0.27300
N228        N  0.65956152  0.34315608  0.78923383    -0.35160
C229        C  0.67008014  0.33413631  0.76398739     0.01040
C230        C  0.69013314  0.31271965  0.76909936     0.07070
C231        C  0.69103849  0.30940574  0.79849698    -0.06030
H232        H  0.66381805  0.34284356  0.74335982     0.07730
H233        H  0.70467741  0.29474175  0.81054835     0.08940
Cu234      Cu  0.62966925  0.37644880  0.79343316     0.44170
Cu235      Cu  0.66526775  0.33485098  0.85391156     0.41990
Cu236      Cu  0.62830962  0.40069997  0.86480200     0.43880
N237        N  0.60460721  0.41153822  0.80565666    -0.34680
N238        N  0.60561053  0.42055673  0.83247151    -0.28940
C239        C  0.58658123  0.44195881  0.83612692    -0.05040
C240        C  0.57262654  0.44690901  0.81044186     0.07180
C241        C  0.58464112  0.42732810  0.79127523     0.00970
H242        H  0.58210988  0.45213009  0.85653219     0.08620
H243        H  0.57835520  0.42380026  0.76917901     0.07700
N244        N  0.64216914  0.37526900  0.89820580    -0.36130
N245        N  0.65541643  0.35020034  0.89479377    -0.28310
C246        C  0.65978029  0.33826325  0.92084652    -0.03550
C247        C  0.64812952  0.35664166  0.94140926     0.05060
C248        C  0.63759634  0.38002542  0.92616979     0.03150
H249        H  0.67013367  0.31759266  0.92453119     0.08260
H250        H  0.62729715  0.39920997  0.93471081     0.07090
N251        N  0.67521329  0.67655141  0.80995107    -0.27300
N252        N  0.66153211  0.66228152  0.78923146    -0.35160
C253        C  0.67144817  0.67147478  0.76378928     0.01040
C254        C  0.69219840  0.69236293  0.76859122     0.07070
C255        C  0.69414798  0.69518988  0.79797196    -0.06030
H256        H  0.66391456  0.66362703  0.74322753     0.07730
H257        H  0.70816115  0.70973698  0.80978936     0.08940
Cu258      Cu  0.62931675  0.63108049  0.79379476     0.44170
Cu259      Cu  0.66853227  0.67120414  0.85387564     0.41990
Cu260      Cu  0.61362877  0.62039676  0.86673333     0.43880
N261        N  0.59725808  0.60241156  0.80681373    -0.34680
N262        N  0.59189930  0.59953225  0.83442172    -0.28940
C263        C  0.57098447  0.57997810  0.83821000    -0.05040
C264        C  0.56248048  0.56965816  0.81177505     0.07180
C265        C  0.57958375  0.58431940  0.79204735     0.00970
H266        H  0.56303152  0.57322248  0.85895388     0.08620
H267        H  0.57961703  0.58165616  0.76899339     0.07700
N268        N  0.63584244  0.64014663  0.89943972    -0.36130
N269        N  0.65639907  0.65956303  0.89531728    -0.28310
C270        C  0.66686385  0.66789092  0.92107672    -0.03550
C271        C  0.65197253  0.65279243  0.94221464     0.05060
C272        C  0.63266037  0.63534591  0.92757133     0.03150
H273        H  0.68450536  0.68302410  0.92412377     0.08260
H274        H  0.61748957  0.62003942  0.93671115     0.07090
O275        O  0.47056188  0.17729944  0.47738911    -0.72950
O276        O  0.53656287  0.17719443  0.53069543    -0.73930
O277        O  0.47669927  0.17764509  0.53656299    -0.62550
O278        O  0.53063090  0.17678050  0.47175702    -0.70960
O279        O  0.53340899  0.22475404  0.47096209    -0.70520
O280        O  0.47472139  0.22565451  0.53677455    -0.61770
O281        O  0.53738894  0.22521195  0.53267121    -0.74280
O282        O  0.47061756  0.22528424  0.47480151    -0.73060
Cu283      Cu  0.50355479  0.17587887  0.50408646     1.04560
Cu284      Cu  0.50400401  0.22724055  0.50376602     1.04330
C285        C  0.46004627  0.20070220  0.46742278     0.93250
C286        C  0.54759634  0.20057116  0.54023473     0.92380
C287        C  0.46691552  0.20111546  0.54704178     0.84530
C288        C  0.54127695  0.19995162  0.46141596     0.90800
N289        N  0.33566736  0.19981865  0.32966241    -0.27300
N290        N  0.34806338  0.22093012  0.34464718    -0.35160
C291        C  0.33778946  0.24650126  0.33540122     0.01040
C292        C  0.31823914  0.24137382  0.31361370     0.07070
C293        C  0.31732594  0.21165023  0.31044061    -0.06030
H294        H  0.34383919  0.26733229  0.34419884     0.07730
H295        H  0.30389136  0.19947085  0.29569940     0.08940
Cu296      Cu  0.37757508  0.21622354  0.37821231     0.44170
Cu297      Cu  0.34205459  0.15547422  0.33615589     0.41990
Cu298      Cu  0.38025205  0.14332007  0.40039471     0.43880
N299        N  0.40330648  0.20312192  0.41250890    -0.34680
N300        N  0.40286644  0.17575264  0.42062366    -0.28940
C301        C  0.42203059  0.17176097  0.44171635    -0.05040
C302        C  0.43552379  0.19778992  0.44745599     0.07180
C303        C  0.42308050  0.21750399  0.42860929     0.00970
H304        H  0.42678163  0.15095370  0.45127664     0.08620
H305        H  0.42882694  0.24007257  0.42592439     0.07700
N306        N  0.36542589  0.10995777  0.37518194    -0.36130
N307        N  0.35153850  0.11379666  0.35073323    -0.28310
C308        C  0.34649769  0.08761344  0.33880031    -0.03550
C309        C  0.35839810  0.06653688  0.35652297     0.05060
C310        C  0.36978330  0.08160644  0.37951827     0.03150
H311        H  0.33558711  0.08418864  0.31853814     0.08260
H312        H  0.38058895  0.07266871  0.39811971     0.07090
N313        N  0.67269416  0.19885381  0.33032058    -0.27300
N314        N  0.66077761  0.21979180  0.34583031    -0.35160
C315        C  0.67177443  0.24535620  0.33742361     0.01040
C316        C  0.69131424  0.24036488  0.31569737     0.07070
C317        C  0.69132958  0.21078973  0.31152400    -0.06030
H318        H  0.66556613  0.26614857  0.34615462     0.07730
H319        H  0.70393242  0.19879488  0.29601110     0.08940
Cu320      Cu  0.62923619  0.21512556  0.37740082     0.44170
Cu321      Cu  0.66489799  0.15458044  0.33480743     0.41990
Cu322      Cu  0.61655322  0.14107339  0.39095617     0.43880
N323        N  0.59806530  0.20159760  0.40663480    -0.34680
N324        N  0.59395472  0.17362196  0.41070881    -0.28940
C325        C  0.57305241  0.16966588  0.43001245    -0.05040
C326        C  0.56324969  0.19636814  0.43893839     0.07180
C327        C  0.57960967  0.21642864  0.42373344     0.00970
H328        H  0.56583392  0.14865940  0.43739215     0.08620
H329        H  0.57842522  0.23979357  0.42517199     0.07700
N330        N  0.63755132  0.10826456  0.36990247    -0.36130
N331        N  0.65514846  0.11263090  0.34807681    -0.28310
C332        C  0.66479262  0.08673642  0.33866762    -0.03550
C333        C  0.65292224  0.06534037  0.35594450     0.05060
C334        C  0.63560520  0.07982543  0.37527656     0.02850
H335        H  0.67964436  0.08373474  0.32101655     0.08260
H336        H  0.62228211  0.07036615  0.39189638     0.07090
N337        N  0.33166237  0.20018455  0.67416646    -0.27300
N338        N  0.34603112  0.22133037  0.66112826    -0.35160
C339        C  0.33662331  0.24690841  0.67120542     0.01040
C340        C  0.31551030  0.24172163  0.69140724     0.07070
C341        C  0.31277276  0.21198991  0.69279841    -0.06030
H342        H  0.34466872  0.26780075  0.66436395     0.07730
H343        H  0.29823487  0.19980132  0.70640046     0.08940
Cu344      Cu  0.37865321  0.21683098  0.63057433     0.44170
Cu345      Cu  0.33767217  0.15582732  0.66760491     0.41990
Cu346      Cu  0.39856517  0.14342250  0.62471515     0.43880
N347        N  0.41199233  0.20359182  0.60360577    -0.34680
N348        N  0.41916867  0.17595298  0.60285891    -0.28940
C349        C  0.44002198  0.17191116  0.58352680    -0.05040
C350        C  0.44660941  0.19818054  0.57110970     0.07180
C351        C  0.42848356  0.21810895  0.58437852     0.00970
H352        H  0.44896140  0.15097192  0.57808599     0.08620
H353        H  0.42668190  0.24100135  0.57973571     0.07700
N354        N  0.37403352  0.11010560  0.64072133    -0.36130
N355        N  0.35084719  0.11404752  0.65672853    -0.28310
C356        C  0.33916798  0.08792579  0.66274503    -0.03550
C357        C  0.35569418  0.06679622  0.64926356     0.05060
C358        C  0.37777824  0.08175303  0.63588784     0.03150
H359        H  0.31991590  0.08457449  0.67550564     0.08260
H360        H  0.39544204  0.07272141  0.62357048     0.07090
N361        N  0.67325697  0.19894968  0.67642593    -0.27300
N362        N  0.66181411  0.22010906  0.66084821    -0.35160
C363        C  0.67259527  0.24553917  0.66992103     0.01040
C364        C  0.69148308  0.24025268  0.69219513     0.07070
C365        C  0.69136901  0.21061535  0.69597452    -0.06030
H366        H  0.66691954  0.26642346  0.66103931     0.07730
H367        H  0.70371752  0.19838595  0.71154955     0.08940
Cu368      Cu  0.63211019  0.21580236  0.62748689     0.44170
Cu369      Cu  0.66573085  0.15478962  0.67051930     0.41990
Cu370      Cu  0.62788613  0.14287800  0.60602700     0.43880
N371        N  0.60550400  0.20281864  0.59387684    -0.34680
N372        N  0.60535839  0.17537451  0.58599848    -0.28940
C373        C  0.58563105  0.17140792  0.56541956    -0.05040
C374        C  0.57238311  0.19754200  0.55979657     0.07180
C375        C  0.58556295  0.21729557  0.57813758     0.00970
H376        H  0.58036990  0.15057617  0.55613891     0.08620
H377        H  0.58022843  0.23996384  0.58074329     0.07700
N378        N  0.64217608  0.10948551  0.63136971    -0.36130
N379        N  0.65586640  0.11327798  0.65593797    -0.28310
C380        C  0.66061912  0.08711329  0.66792804    -0.03550
C381        C  0.64872833  0.06609386  0.65011150     0.05060
C382        C  0.63765000  0.08115762  0.62700480     0.03150
H383        H  0.67138911  0.08366693  0.68825267     0.08260
H384        H  0.62699462  0.07223818  0.60829242     0.07090
O385        O  0.47306018  0.78270855  0.53633515    -0.72950
O386        O  0.53314789  0.78263091  0.47178848    -0.73930
O387        O  0.53581385  0.78254777  0.53363122    -0.62550
O388        O  0.47025449  0.78276119  0.47432426    -0.70960
O389        O  0.47105811  0.83076366  0.47644878    -0.70520
O390        O  0.53534365  0.83056383  0.53166247    -0.61770
O391        O  0.53125236  0.83064153  0.47259291    -0.74280
O392        O  0.47536416  0.83070901  0.53576879    -0.73060
Cu393      Cu  0.50302162  0.78064476  0.50398909     1.04560
Cu394      Cu  0.50321374  0.83201480  0.50408944     1.04330
C395        C  0.46517598  0.80737700  0.54620435     0.93250
C396        C  0.54171120  0.80730187  0.46247161     0.92380
C397        C  0.54596032  0.80715834  0.54149106     0.84530
C398        C  0.46032597  0.80743150  0.46647297     0.90800
N399        N  0.33317410  0.80787477  0.33091811    -0.27300
N400        N  0.34548510  0.78688366  0.34608205    -0.35160
C401        C  0.33525935  0.76124445  0.33690601     0.01040
C402        C  0.31580076  0.76621279  0.31502917     0.07070
C403        C  0.31499286  0.79589069  0.31161124    -0.06030
H404        H  0.34165007  0.74043908  0.34548906     0.07730
H405        H  0.30200909  0.80792770  0.29639896     0.08940
Cu406      Cu  0.37567535  0.79167597  0.37904593     0.44170
Cu407      Cu  0.33977832  0.85225685  0.33681516     0.41990
Cu408      Cu  0.38160847  0.86515194  0.39848759     0.43880
N409        N  0.40317442  0.80511202  0.41186663    -0.34680
N410        N  0.40416121  0.83280790  0.41877447    -0.28940
C411        C  0.42389321  0.83689749  0.43932925    -0.05040
C412        C  0.43627114  0.81058362  0.44599980     0.07180
C413        C  0.42258975  0.79060428  0.42823728     0.00970
H414        H  0.42948572  0.85783996  0.44816262     0.08620
H415        H  0.42699688  0.76763842  0.42669372     0.07700
N416        N  0.36451180  0.89823673  0.37445325    -0.36130
N417        N  0.34916551  0.89412290  0.35091932    -0.28310
C418        C  0.34276395  0.92019438  0.33945131    -0.03550
C419        C  0.35475345  0.94158180  0.35685109     0.05060
C420        C  0.36844547  0.92667278  0.37867461     0.03150
H421        H  0.33118624  0.92325915  0.31950913     0.08260
H422        H  0.38086679  0.93583683  0.39617864     0.07090
N423        N  0.67131138  0.80710218  0.32963120    -0.27300
N424        N  0.65943274  0.78618877  0.34522424    -0.35160
C425        C  0.67057273  0.76063504  0.33699821     0.01040
C426        C  0.69018092  0.76560677  0.31531273     0.07070
C427        C  0.69010532  0.79516381  0.31100237    -0.06030
H428        H  0.66458270  0.73988147  0.34597445     0.07730
H429        H  0.70283814  0.80715595  0.29558075     0.08940
Cu430      Cu  0.62823626  0.79098793  0.37713938     0.44170
Cu431      Cu  0.66337692  0.85138908  0.33390795     0.41990
Cu432      Cu  0.61832096  0.86512897  0.39254097     0.43880
N433        N  0.59842606  0.80484497  0.40759960    -0.34680
N434        N  0.59559770  0.83282929  0.41256605    -0.28940
C435        C  0.57513487  0.83706397  0.43225480    -0.05040
C436        C  0.56425251  0.81054450  0.44049247     0.07180
C437        C  0.57954704  0.79028318  0.42450576     0.00970
H438        H  0.56867278  0.85814707  0.44007301     0.08620
H439        H  0.57712445  0.76697222  0.42504038     0.07700
N440        N  0.63735893  0.89791146  0.36969822    -0.36130
N441        N  0.65361710  0.89344210  0.34690484    -0.28310
C442        C  0.66215900  0.91932831  0.33645434    -0.03550
C443        C  0.65058680  0.94088125  0.35376688     0.05060
C444        C  0.63518716  0.92641192  0.37465063     0.03150
H445        H  0.67628825  0.92221119  0.31820794     0.08260
H446        H  0.62318737  0.93592961  0.39219424     0.07090
N447        N  0.33059952  0.80842772  0.67412642    -0.27300
N448        N  0.34374918  0.78744509  0.65969077    -0.35160
C449        C  0.33383835  0.76176540  0.66901254     0.01040
C450        C  0.31368036  0.76671393  0.69018757     0.07070
C451        C  0.31213890  0.79641263  0.69305860    -0.06030
H452        H  0.34130329  0.74094500  0.66138020     0.07730
H453        H  0.29892263  0.80842134  0.70804976     0.08940
Cu454      Cu  0.37613451  0.79219791  0.62897376     0.44170
Cu455      Cu  0.33791377  0.85276461  0.66918352     0.41990
Cu456      Cu  0.39698584  0.86552804  0.62385972     0.43880
N457        N  0.40950840  0.80539780  0.60205207    -0.34680
N458        N  0.41686511  0.83300937  0.60133165    -0.28940
C459        C  0.43786841  0.83692460  0.58211852    -0.05040
C460        C  0.44438572  0.81058690  0.56981158     0.07180
C461        C  0.42604599  0.79076675  0.58297661     0.00970
H462        H  0.44715445  0.85777676  0.57687109     0.08620
H463        H  0.42424888  0.76783567  0.57847654     0.07700
N464        N  0.37412746  0.89870190  0.64236296    -0.36130
N465        N  0.35168309  0.89459423  0.65934034    -0.28310
C466        C  0.34066643  0.92065183  0.66659367    -0.03550
C467        C  0.35720229  0.94201093  0.65340582     0.05060
C468        C  0.37805528  0.92713740  0.63815633     0.03150
H469        H  0.32150566  0.92373749  0.67953940     0.08260
H470        H  0.39462863  0.93632018  0.62450802     0.07090
N471        N  0.67301159  0.80791352  0.67685501    -0.27300
N472        N  0.66034232  0.78681966  0.66207098    -0.35160
C473        C  0.67056742  0.76124203  0.67130701     0.01040
C474        C  0.69040520  0.76638601  0.69281691     0.07070
C475        C  0.69147935  0.79608220  0.69593313    -0.06030
H476        H  0.66409972  0.74038721  0.66285825     0.07730
H477        H  0.70493097  0.80823662  0.71067850     0.08940
Cu478      Cu  0.63012304  0.79143741  0.62917056     0.44170
Cu479      Cu  0.66672502  0.85220154  0.67057708     0.41990
Cu480      Cu  0.62590088  0.86462631  0.60826591     0.43880
N481        N  0.60316253  0.80472766  0.59594727    -0.34680
N482        N  0.60286052  0.83227809  0.58846613    -0.28940
C483        C  0.58323271  0.83634685  0.56783592    -0.05040
C484        C  0.57021870  0.81017247  0.56171926     0.07180
C485        C  0.58341457  0.79028598  0.57986610     0.00970
H486        H  0.57808743  0.85722447  0.55863212     0.08620
H487        H  0.57838871  0.76748109  0.58193694     0.07700
N488        N  0.64284783  0.89786620  0.63223178    -0.36130
N489        N  0.65777966  0.89390198  0.65603629    -0.28310
C490        C  0.66404199  0.92002219  0.66749461    -0.03550
C491        C  0.65239322  0.94128227  0.64980268     0.05060
C492        C  0.63903908  0.92627013  0.62781633     0.03150
H493        H  0.67524763  0.92320380  0.68763334     0.08260
H494        H  0.62687631  0.93533587  0.61010661     0.07090
C495        C  0.70780979  0.70767360  0.26147897     0.03120
C496        C  0.69502831  0.73199035  0.27419696    -0.13030
C497        C  0.70647277  0.74348604  0.29959923     0.00620
C498        C  0.73091585  0.73070323  0.31217143    -0.11550
C499        C  0.74407490  0.70667013  0.29926292     0.03110
C500        C  0.73254675  0.69527264  0.27384512    -0.10980
H501        H  0.67508702  0.74071369  0.26543596     0.08710
H502        H  0.73885478  0.73858961  0.33262781     0.06240
H503        H  0.74154413  0.67558639  0.26485817     0.06080
O504        O  0.22525814  0.53466400  0.53488628    -0.72950
O505        O  0.22495810  0.47225046  0.47244181    -0.73930
O506        O  0.22562517  0.53520648  0.47305501    -0.62550
O507        O  0.22456107  0.47174407  0.53439956    -0.70960
O508        O  0.17654753  0.47343609  0.53255188    -0.70520
O509        O  0.17756246  0.53457123  0.47424294    -0.61770
O510        O  0.17693816  0.47428900  0.47328314    -0.74280
O511        O  0.17720391  0.53375959  0.53326957    -0.73060
Cu512      Cu  0.22712078  0.50341606  0.50371289     1.04560
Cu513      Cu  0.17572217  0.50398629  0.50332854     1.04330
C514        C  0.20063875  0.54420168  0.54331974     0.93250
C515        C  0.20021902  0.46351637  0.46336136     0.92380
C516        C  0.20110605  0.54507397  0.46461177     0.84530
C517        C  0.19972923  0.46261172  0.54272265     0.90800
N518        N  0.19903860  0.33310348  0.33079605    -0.27300
N519        N  0.22007483  0.34520971  0.34615613    -0.35160
C520        C  0.24564525  0.33452196  0.33742794     0.01040
C521        C  0.24058690  0.31499655  0.31563982     0.07070
C522        C  0.21093720  0.31464778  0.31178845    -0.06030
H523        H  0.26648144  0.34084637  0.34606708     0.07730
H524        H  0.19886386  0.30189253  0.29639062     0.08940
Cu525      Cu  0.21562974  0.37639134  0.37821774     0.44170
Cu526      Cu  0.15464706  0.34037924  0.33572032     0.41990
Cu527      Cu  0.14176128  0.38795648  0.39257587     0.43880
N528        N  0.20221169  0.40653760  0.40859994    -0.34680
N529        N  0.17423149  0.40996211  0.41317510    -0.28940
C530        C  0.17017830  0.43039904  0.43295242    -0.05040
C531        C  0.19682225  0.44070470  0.44161997     0.07180
C532        C  0.21696624  0.42508065  0.42579114     0.00970
H533        H  0.14912905  0.43733274  0.44043523     0.08620
H534        H  0.24031961  0.42711171  0.42657064     0.07700
N535        N  0.10865200  0.36787939  0.37102093    -0.36130
N536        N  0.11271536  0.35030038  0.34910906    -0.28310
C537        C  0.08661498  0.34101583  0.33970322    -0.03550
C538        C  0.06540447  0.35312869  0.35706493     0.05060
C539        C  0.08025643  0.37027034  0.37637741     0.03150
H540        H  0.08333488  0.32623739  0.32199688     0.08260
H541        H  0.07109637  0.38375551  0.39303116     0.07090
N542        N  0.20015907  0.67133824  0.32892748    -0.27300
N543        N  0.22133675  0.65852459  0.34344067    -0.35160
C544        C  0.24689922  0.66883910  0.33422547     0.01040
C545        C  0.24170485  0.68890727  0.31300294     0.07070
C546        C  0.21195288  0.69004451  0.31007002    -0.06030
H547        H  0.26778461  0.66241043  0.34263260     0.07730
H548        H  0.19974002  0.70377172  0.29566468     0.08940
Cu549      Cu  0.21691761  0.62834346  0.37631226     0.44170
Cu550      Cu  0.15580038  0.66492387  0.33545768     0.41990
Cu551      Cu  0.14431406  0.62635351  0.39924100     0.43880
N552        N  0.20385742  0.60199979  0.41002550    -0.34680
N553        N  0.17653752  0.60256366  0.41827083    -0.28940
C554        C  0.17241373  0.58303128  0.43892090    -0.05040
C555        C  0.19831773  0.56921526  0.44429298     0.07180
C556        C  0.21812219  0.58184400  0.42569383     0.00970
H557        H  0.15164942  0.57853637  0.44868549     0.08620
H558        H  0.24069549  0.57614964  0.42302143     0.07700
N559        N  0.11064713  0.64172679  0.37485160    -0.36130
N560        N  0.11421520  0.65557170  0.35038522    -0.28310
C561        C  0.08788223  0.66062322  0.33876497    -0.03550
C562        C  0.06698302  0.64879437  0.35673311     0.05060
C563        C  0.08233281  0.63746622  0.37955568     0.03150
H564        H  0.08423192  0.67144862  0.31852561     0.08260
H565        H  0.07363401  0.62668442  0.39825018     0.07090
N566        N  0.19794330  0.33385294  0.67654316    -0.27300
N567        N  0.21904979  0.34674467  0.66203869    -0.35160
C568        C  0.24463215  0.33657595  0.67136396     0.01040
C569        C  0.23946988  0.31655496  0.69263435     0.07070
C570        C  0.20976353  0.31529000  0.69551379    -0.06030
H571        H  0.26551117  0.34324543  0.66317464     0.07730
H572        H  0.19759722  0.30169933  0.71005875     0.08940
Cu573      Cu  0.21452087  0.37744988  0.62962303     0.44170
Cu574      Cu  0.15367110  0.34016557  0.67027527     0.41990
Cu575      Cu  0.14090198  0.38504004  0.61096025     0.43880
N576        N  0.20127612  0.40584196  0.59759139    -0.34680
N577        N  0.17348527  0.40765177  0.59117238    -0.28940
C578        C  0.16960857  0.42761093  0.57086762    -0.05040
C579        C  0.19617321  0.43924146  0.56380981     0.07180
C580        C  0.21607376  0.42490824  0.58110510     0.00970
H581        H  0.14870304  0.43358320  0.56218867     0.08620
H582        H  0.23924727  0.42842075  0.58204581     0.07700
N583        N  0.10778023  0.36651632  0.63381770    -0.36130
N584        N  0.11190406  0.34991903  0.65645256    -0.28310
C585        C  0.08585745  0.34268483  0.66743855    -0.03550
C586        C  0.06446703  0.35543900  0.65065659     0.05060
C587        C  0.07932675  0.37044266  0.62969600     0.03150
H588        H  0.08281183  0.33004108  0.68670658     0.08260
H589        H  0.07012143  0.38375883  0.61290450     0.07090
N590        N  0.19963647  0.67107243  0.67866166    -0.27300
N591        N  0.22073689  0.65757941  0.66472943    -0.35160
C592        C  0.24636563  0.66763072  0.67413476     0.01040
C593        C  0.24127528  0.68825087  0.69484964     0.07070
C594        C  0.21153136  0.69004502  0.69724430    -0.06030
H595        H  0.26721895  0.66082836  0.66602125     0.07730
H596        H  0.19940029  0.70443714  0.71103202     0.08940
Cu597      Cu  0.21616574  0.62716611  0.63207104     0.44170
Cu598      Cu  0.15529535  0.66517334  0.67178233     0.41990
Cu599      Cu  0.14341386  0.62467561  0.60921620     0.43880
N600        N  0.20305083  0.60062504  0.59847770    -0.34680
N601        N  0.17565820  0.60089312  0.59034685    -0.28940
C602        C  0.17159438  0.58138800  0.56962921    -0.05040
C603        C  0.19762252  0.56792342  0.56407936     0.07180
C604        C  0.21742865  0.58071323  0.58265201     0.00970
H605        H  0.15083502  0.57679801  0.55981033     0.08620
H606        H  0.24012954  0.57539067  0.58509662     0.07700
N607        N  0.10991977  0.64092377  0.63313443    -0.36130
N608        N  0.11366597  0.65560238  0.65711939    -0.28310
C609        C  0.08743183  0.66116553  0.66860406    -0.03550
C610        C  0.06640795  0.64880461  0.65106461     0.05060
C611        C  0.08156680  0.63661318  0.62861037     0.03150
H612        H  0.08393871  0.67266965  0.68849564     0.08260
H613        H  0.07271123  0.62519174  0.61031836     0.07090
O614        O  0.82952218  0.47302414  0.53309934    -0.72950
O615        O  0.83058122  0.53451745  0.47506733    -0.73930
O616        O  0.83006972  0.53336236  0.53421474    -0.62550
O617        O  0.83011148  0.47424540  0.47391759    -0.70960
O618        O  0.78207446  0.47299279  0.47226729    -0.70520
O619        O  0.78203426  0.53521410  0.53494168    -0.61770
O620        O  0.78255550  0.53588332  0.47308857    -0.74280
O621        O  0.78146159  0.47226977  0.53418958    -0.73060
Cu622      Cu  0.83141553  0.50376729  0.50410688     1.04560
Cu623      Cu  0.78001469  0.50409562  0.50361309     1.04330
C624        C  0.80597607  0.46251336  0.54274528     0.93250
C625        C  0.80734728  0.54528744  0.46495351     0.92380
C626        C  0.80672779  0.54417792  0.54393331     0.84530
C627        C  0.80676929  0.46386655  0.46359488     0.90800
N628        N  0.80675648  0.33632508  0.32854528    -0.27300
N629        N  0.78580453  0.34851301  0.34381780    -0.35160
C630        C  0.76018557  0.33766106  0.33524594     0.01040
C631        C  0.76514272  0.31795255  0.31362907     0.07070
C632        C  0.79477672  0.31757866  0.30980125    -0.06030
H633        H  0.73942992  0.34364859  0.34418899     0.07730
H634        H  0.80680835  0.30437262  0.29481819     0.08940
Cu635      Cu  0.79067293  0.37916896  0.37629047     0.44170
Cu636      Cu  0.85114582  0.34354396  0.33366989     0.41990
Cu637      Cu  0.86473322  0.38792187  0.39308449     0.43880
N638        N  0.80443006  0.40776332  0.40800415    -0.34680
N639        N  0.83236175  0.41000575  0.41366663    -0.28940
C640        C  0.83653005  0.42986710  0.43402567    -0.05040
C641        C  0.81002361  0.44100409  0.44191329     0.07180
C642        C  0.78984105  0.42647107  0.42504862     0.00970
H643        H  0.85758319  0.43602912  0.44225947     0.08620
H644        H  0.76659267  0.42950238  0.42487901     0.07700
N645        N  0.89759296  0.36938730  0.36995131    -0.36130
N646        N  0.89319780  0.35316378  0.34707243    -0.28310
C647        C  0.91913607  0.34463935  0.33676149    -0.03550
C648        C  0.94068257  0.35625379  0.35419312     0.05060
C649        C  0.92608944  0.37163374  0.37502558     0.03150
H650        H  0.92203799  0.33042269  0.31856606     0.08260
H651        H  0.93552362  0.38357587  0.39271217     0.07090
N652        N  0.80812766  0.67299743  0.33037996    -0.27300
N653        N  0.78717158  0.66041003  0.34535121    -0.35160
C654        C  0.76148833  0.67068110  0.33641026     0.01040
C655        C  0.76637713  0.69046611  0.31487616     0.07070
C656        C  0.79606323  0.69145011  0.31143172    -0.06030
H657        H  0.74072239  0.66420625  0.34501865     0.07730
H658        H  0.80804780  0.70481074  0.29653558     0.08940
Cu659      Cu  0.79200721  0.63001808  0.37794463     0.44170
Cu660      Cu  0.85255448  0.66653014  0.33630037     0.41990
Cu661      Cu  0.86534774  0.62459432  0.39789748     0.43880
N662        N  0.80537556  0.60230858  0.41044151    -0.34680
N663        N  0.83305881  0.60135127  0.41746719    -0.28940
C664        C  0.83708915  0.58144950  0.43780985    -0.05040
C665        C  0.81072738  0.56899512  0.44423159     0.07180
C666        C  0.79079427  0.58277743  0.42655889     0.00970
H667        H  0.85798233  0.57597806  0.44683993     0.08620
H668        H  0.76778619  0.57847760  0.42500652     0.07700
N669        N  0.89844419  0.64221073  0.37429827    -0.36130
N670        N  0.89440294  0.65743425  0.35071612    -0.28310
C671        C  0.92053142  0.66394161  0.33942638    -0.03550
C672        C  0.94188284  0.65218652  0.35701425     0.05060
C673        C  0.92687739  0.63851601  0.37875706     0.03150
H674        H  0.92365288  0.67537732  0.31944644     0.08260
H675        H  0.93597183  0.62618113  0.39632529     0.07090
N676        N  0.80636989  0.33558149  0.67803507    -0.27300
N677        N  0.78517234  0.34843742  0.66357795    -0.35160
C678        C  0.75963006  0.33813109  0.67289567     0.01040
C679        C  0.76490464  0.31806847  0.69412495     0.07070
C680        C  0.79464297  0.31689216  0.69692399    -0.06030
H681        H  0.73871455  0.34455040  0.66455538     0.07730
H682        H  0.80690475  0.30313365  0.71126088     0.08940
Cu683      Cu  0.78959768  0.37878051  0.63075180     0.44170
Cu684      Cu  0.85070690  0.34183639  0.67166985     0.41990
Cu685      Cu  0.86268881  0.38252641  0.60958419     0.43880
N686        N  0.80296690  0.40571532  0.59752106    -0.34680
N687        N  0.83051322  0.40581092  0.59002651    -0.28940
C688        C  0.83478279  0.42540284  0.56947023    -0.05040
C689        C  0.80874292  0.43860210  0.56334452     0.07180
C690        C  0.78870412  0.42554486  0.58143284     0.00970
H691        H  0.85569944  0.43028707  0.56021757     0.08620
H692        H  0.76591556  0.43065512  0.58339435     0.07700
N693        N  0.89616026  0.36655010  0.63373172    -0.36130
N694        N  0.89239759  0.35160699  0.65751973    -0.28310
C695        C  0.91862447  0.34597088  0.66908909    -0.03550
C696        C  0.93962580  0.35860349  0.65181329     0.05060
C697        C  0.92449551  0.37103517  0.62944272     0.03150
H698        H  0.92212561  0.33420178  0.68883256     0.08260
H699        H  0.93337390  0.38268778  0.61134776     0.07090
N700        N  0.80781738  0.67361157  0.67715438    -0.27300
N701        N  0.78672966  0.66071333  0.66252086    -0.35160
C702        C  0.76111885  0.67094968  0.67161684     0.01040
C703        C  0.76621420  0.69104254  0.69286371     0.07070
C704        C  0.79592532  0.69224851  0.69598872    -0.06030
H705        H  0.74026337  0.66422327  0.66332859     0.07730
H706        H  0.80804376  0.70581975  0.71065085     0.08940
Cu707      Cu  0.79120273  0.62982988  0.63027494     0.44170
Cu708      Cu  0.85220349  0.66724905  0.67125640     0.41990
Cu709      Cu  0.86461928  0.62328193  0.61137895     0.43880
N710        N  0.80454021  0.60131822  0.59844358    -0.34680
N711        N  0.83231368  0.59987270  0.59199283    -0.28940
C712        C  0.83640541  0.57970983  0.57194149    -0.05040
C713        C  0.80999354  0.56758184  0.56504809     0.07180
C714        C  0.78994555  0.58184180  0.58217119     0.00970
H715        H  0.85735161  0.57402578  0.56324265     0.08620
H716        H  0.76682376  0.57803882  0.58311878     0.07700
N717        N  0.89789655  0.64165307  0.63420572    -0.36130
N718        N  0.89399439  0.65777058  0.65721015    -0.28310
C719        C  0.92018161  0.66472730  0.66819790    -0.03550
C720        C  0.94141216  0.65230435  0.65100192     0.05060
C721        C  0.92629314  0.63779774  0.62981113     0.03150
H722        H  0.92342990  0.67692887  0.68773309     0.08260
H723        H  0.93528293  0.62480282  0.61268763     0.07090
C724        C  0.26275340  0.29935928  0.29933569     0.03120
C725        C  0.27680398  0.27552390  0.31169030    -0.13030
C726        C  0.30113826  0.26334384  0.29841328     0.00620
C727        C  0.31162934  0.27535654  0.27286937    -0.11550
C728        C  0.29785993  0.29943310  0.26060385     0.03110
C729        C  0.27318320  0.31111521  0.27366769    -0.10980
H730        H  0.26963179  0.26732031  0.33226405     0.08710
H731        H  0.33154675  0.26721280  0.26360387     0.06240
H732        H  0.26346161  0.33064596  0.26507552     0.06080
C733        C  0.98768311  0.62539536  0.64915506    -0.09160
C734        C  0.97330800  0.65155057  0.65481764     0.07030
C735        C  0.98991585  0.67627959  0.66177129    -0.02930
C736        C  0.02029105  0.67464949  0.66181944    -0.07380
C737        C  0.03454703  0.64878439  0.65468800     0.06150
C738        C  0.01786933  0.62375900  0.64913157    -0.02410
Br739      Br  0.03476058  0.58634426  0.64240978    -0.02100
H740        H  0.97530787  0.60600075  0.64444078     0.10060
H741        H  0.03282081  0.69404497  0.66605709     0.08080
Br742      Br  0.97270447  0.71344641  0.66842276    -0.02530
C743        C  0.01817069  0.38231711  0.65034357    -0.09160
C744        C  0.03265564  0.35598434  0.65476789     0.07030
C745        C  0.01622371  0.33093574  0.66086239    -0.02930
C746        C  0.98585671  0.33247715  0.66132446    -0.07380
C747        C  0.97146804  0.35858372  0.65543165     0.06150
C748        C  0.98798791  0.38386035  0.65072349    -0.02410
Br749      Br  0.97081344  0.42140304  0.64559192    -0.02100
H750        H  0.03044767  0.40190485  0.64626230     0.10060
H751        H  0.97342191  0.31288570  0.66482918     0.08080
Br752      Br  0.03365226  0.29356648  0.66564235    -0.02530
C753        C  0.02071763  0.67408194  0.34500931    -0.09160
C754        C  0.03506701  0.64858123  0.35321330     0.07030
C755        C  0.01843368  0.62382188  0.35989722    -0.02930
C756        C  0.98823740  0.62544107  0.35991401    -0.07380
C757        C  0.97378186  0.65129876  0.35316734     0.06150
C758        C  0.99033242  0.67569094  0.34507813    -0.02410
Br759      Br  0.97306016  0.71250365  0.33681394    -0.02100
H760        H  0.03319211  0.69327536  0.33988468     0.10060
H761        H  0.97591901  0.60626542  0.36549507     0.08080
Br762      Br  0.03537237  0.58672773  0.36811364    -0.02530
C763        C  0.01923041  0.35484360  0.32931340    -0.09160
C764        C  0.03358137  0.34985756  0.35540991     0.07030
C765        C  0.01704949  0.34455274  0.38024759    -0.02930
C766        C  0.98686323  0.34572393  0.37895344    -0.07380
C767        C  0.97243336  0.35195978  0.35319950     0.06150
C768        C  0.98886047  0.35613815  0.32806344    -0.02410
Br769      Br  0.97130145  0.36686486  0.29233358    -0.02100
H770        H  0.03169824  0.35928123  0.31015822     0.10060
H771        H  0.97453831  0.34207580  0.39837058     0.08080
Br772      Br  0.03436568  0.33490933  0.41648331    -0.02530
C773        C  0.62539418  0.98745621  0.64735235    -0.09160
C774        C  0.65140420  0.97310684  0.65376527     0.07030
C775        C  0.67589569  0.98967930  0.66158471    -0.02930
C776        C  0.67423090  0.02002750  0.66171629    -0.07380
C777        C  0.64856729  0.03427546  0.65382679     0.06150
C778        C  0.62372450  0.01762991  0.64743358    -0.02410
Br779      Br  0.58654525  0.03460782  0.63960146    -0.02100
H780        H  0.60618180  0.97507527  0.64193679     0.10060
H781        H  0.69349184  0.03254744  0.66657654     0.08080
Br782      Br  0.71288343  0.97245277  0.66927250    -0.02530
C783        C  0.35591539  0.98807099  0.62637717    -0.09160
C784        C  0.35289164  0.97379451  0.65275228     0.07030
C785        C  0.34807886  0.99040677  0.67768498    -0.02930
C786        C  0.34749033  0.02075506  0.67594752    -0.07380
C787        C  0.35198669  0.03495612  0.64971819     0.06150
C788        C  0.35537577  0.01824369  0.62462573    -0.02410
Br789      Br  0.35846171  0.03517246  0.58713584    -0.02100
H790        H  0.35903793  0.97563415  0.60692197     0.10060
H791        H  0.34502875  0.03332161  0.69540208     0.08080
Br792      Br  0.34534697  0.97319437  0.71497697    -0.02530
C793        C  0.66270875  0.98711897  0.37762501    -0.09160
C794        C  0.65475572  0.97257319  0.35240759     0.07030
C795        C  0.64857481  0.98881521  0.32755572    -0.02930
C796        C  0.64972862  0.01917102  0.32854731    -0.07380
C797        C  0.65652305  0.03363880  0.35416430     0.06150
C798        C  0.66371334  0.01731519  0.37867112    -0.02410
Br799      Br  0.67547956  0.03509145  0.41406092    -0.02100
H800        H  0.66773510  0.97488439  0.39681743     0.10060
H801        H  0.64374704  0.03152009  0.30970704     0.08080
Br802      Br  0.63521954  0.97089784  0.29286320    -0.02530
C803        C  0.33274519  0.02033609  0.34516794    -0.09160
C804        C  0.35849397  0.03467862  0.35276456     0.07030
C805        C  0.38340575  0.01807574  0.35885498    -0.02930
C806        C  0.38174399  0.98788646  0.35893804    -0.07380
C807        C  0.35567066  0.97343841  0.35283093     0.06150
C808        C  0.33108850  0.98996237  0.34530520    -0.02410
Br809      Br  0.29401953  0.97263193  0.33803292    -0.02100
H810        H  0.31342667  0.03280180  0.34053617     0.10060
H811        H  0.40102710  0.97556816  0.36412466     0.08080
Br812      Br  0.42067955  0.03513233  0.36626901    -0.02530
C813        C  0.65850971  0.67665666  0.02009893    -0.09160
C814        C  0.65781563  0.64975944  0.03411268     0.07030
C815        C  0.65787737  0.62417779  0.01757422    -0.02930
C816        C  0.65706720  0.62586059  0.98771770    -0.07380
C817        C  0.65640083  0.65269196  0.97363351     0.06150
C818        C  0.65760859  0.67831666  0.99007264    -0.02410
Br819      Br  0.65479896  0.71597251  0.97298345    -0.02100
H820        H  0.65818840  0.69646018  0.03255520     0.10060
H821        H  0.65660144  0.60597136  0.97537602     0.08080
Br822      Br  0.65984522  0.58624681  0.03438597    -0.02530
C823        C  0.67307115  0.34409865  0.98717268    -0.09160
C824        C  0.64780009  0.35312684  0.97296308     0.07030
C825        C  0.62324812  0.36054752  0.98937910    -0.02930
C826        C  0.62487559  0.36038976  0.01926274    -0.07380
C827        C  0.65053772  0.35274322  0.03358079     0.06150
C828        C  0.67470056  0.34400755  0.01721709    -0.02410
Br829      Br  0.71133634  0.33466997  0.03429422    -0.02100
H830        H  0.69211628  0.33843881  0.97485847     0.10060
H831        H  0.60587417  0.36651753  0.03144153     0.08080
Br832      Br  0.58641771  0.36997750  0.97252700    -0.02530
C833        C  0.35523936  0.67754370  0.01923314    -0.09160
C834        C  0.35078313  0.65103064  0.03331025     0.07030
C835        C  0.34593543  0.62588250  0.01679054    -0.02930
C836        C  0.34704779  0.62732559  0.98694552    -0.07380
C837        C  0.35275474  0.65350896  0.97278016     0.06150
C838        C  0.35645071  0.67894173  0.98918533    -0.02410
Br839      Br  0.36625708  0.71539396  0.97205762    -0.02100
H840        H  0.35924742  0.69696976  0.03166284     0.10060
H841        H  0.34365970  0.60767400  0.97467133     0.08080
Br842      Br  0.33676067  0.58898935  0.03354375    -0.02530
C843        C  0.34320136  0.33403548  0.98649870    -0.09160
C844        C  0.35293445  0.35910124  0.97241473     0.07030
C845        C  0.36089206  0.38342946  0.98902565    -0.02930
C846        C  0.36062336  0.38171961  0.01891070    -0.07380
C847        C  0.35231135  0.35622330  0.03310727     0.06150
C848        C  0.34296038  0.33234145  0.01655918    -0.02410
Br849      Br  0.33246314  0.29595100  0.03339562    -0.02100
H850        H  0.33706551  0.31516284  0.97407579     0.10060
H851        H  0.36718170  0.40055596  0.03119515     0.08080
Br852      Br  0.37117674  0.42014579  0.97250103    -0.02530
loop_ 
_geom_bond_atom_site_label_1 
_geom_bond_atom_site_label_2 
_geom_bond_distance 
_geom_bond_site_symmetry_2 
_ccdc_geom_bond_type 
C1            C2   1.401       .  A
C1            C6   1.401       .  A
C1          C254   1.464       .  S
C2            C3   1.401       .  A
C2            H7   1.084       .  S
C3            C4   1.401       .  A
C3          C703   1.465       .  S
C4            C5   1.402       .  A
C4            H8   1.084       .  S
C5            C6   1.401       .  A
C5          C474   1.465       .  S
C6            H9   1.084       .  S
C10          C11   1.401       .  A
C10          C15   1.402       .  A
C10          C96   1.465       .  S
C11          C12   1.401       .  A
C11          H16   1.084       .  S
C12          C13   1.402       .  A
C12         C402   1.467       .  S
C13          C14   1.402       .  A
C13          H17   1.084       .  S
C14          C15   1.401       .  A
C14         C545   1.467       .  S
C15          H18   1.084       .  S
C19          C20   1.400       .  A
C19          C24   1.402       .  A
C19         C364   1.465       .  S
C20          C21   1.401       .  A
C20          H25   1.084       .  S
C21          C22   1.402       .  A
C21         C230   1.464       .  S
C22          C23   1.401       .  A
C22          H26   1.084       .  S
C23          C24   1.401       .  A
C23         C679   1.467       .  S
C24          H27   1.084       .  S
C28          C29   1.401       .  A
C28          C33   1.402       .  A
C28         C340   1.467       .  S
C29          C30   1.401       .  A
C29          H34   1.084       .  S
C30          C31   1.401       .  A
C30         C569   1.465       .  S
C31          C32   1.401       .  A
C31          H35   1.084       .  S
C32          C33   1.403       .  A
C32         C182   1.466       .  S
C33          H36   1.084       .  S
C37          C38   1.401       .  A
C37          C42   1.401       .  A
C37         C593   1.466       .  S
C38          C39   1.401       .  A
C38          H43   1.084       .  S
C39          C40   1.402       .  A
C39         C450   1.466       .  S
C40          C41   1.401       .  A
C40          H44   1.084       .  S
C41          C42   1.402       .  A
C41         C206   1.466       .  S
C42          H45   1.084       .  S
C46          C47   1.401       .  A
C46          C51   1.401       .  A
C46         C631   1.466       .  S
C47          C48   1.402       .  A
C47          H52   1.084       .  S
C48          C49   1.401       .  A
C48         C120   1.465       .  S
C49          C50   1.401       .  A
C49          H53   1.084       .  S
C50          C51   1.401       .  A
C50         C316   1.465       .  S
C51          H54   1.084       .  S
O55         Cu63   2.050       .  S
O55          C65   1.282       .  A
O56         Cu63   2.051       .  S
O56          C66   1.282       .  A
O57         Cu63   2.049       .  S
O57          C67   1.282       .  A
O58         Cu63   2.049       .  S
O58          C68   1.282       .  A
O59         Cu64   1.960       .  S
O59          C68   1.272       .  A
O60         Cu64   1.959       .  S
O60          C67   1.272       .  A
O61         Cu64   1.960       .  S
O61          C66   1.272       .  A
O62         Cu64   1.958       .  S
O62          C65   1.272       .  A
Cu63        Cu64   2.372       .  S
C65         C154   1.469       .  S
C66          C82   1.469       .  S
C67         C130   1.468       .  S
C68         C106   1.469       .  S
N69          N70   1.328       .  A
N69          C73   1.349       .  A
N69         Cu77   2.094       .  S
N70          C71   1.342       .  A
N70         Cu76   2.078       .  S
C71          C72   1.376       .  A
C71          H74   1.082       .  S
C72          C73   1.382       .  A
C72         C728   1.466       .  S
C73          H75   1.082       .  S
Cu76         N79   2.075       .  S
Cu77         N87   2.091       .  S
Cu78         N80   2.054       .  S
Cu78         N86   2.055       .  S
N79          N80   1.319       .  A
N79          C83   1.354       .  A
N80          C81   1.334       .  A
C81          C82   1.379       .  A
C81          H84   1.082       .  S
C82          C83   1.389       .  A
C83          H85   1.083       .  S
N86          N87   1.319       .  A
N86          C90   1.340       .  A
N87          C88   1.351       .  A
C88          C89   1.393       .  A
C88          H91   1.082       .  S
C89          C90   1.382       .  A
C89         C847   1.486       .  S
C90          H92   1.083       .  S
N93          N94   1.328       .  A
N93          C97   1.349       .  A
N93        Cu101   2.091       .  S
N94          C95   1.342       .  A
N94        Cu100   2.082       .  S
C95          C96   1.376       .  A
C95          H98   1.082       .  S
C96          C97   1.380       .  A
C97          H99   1.082       .  S
Cu100       N103   2.078       .  S
Cu101       N111   2.088       .  S
Cu102       N104   2.048       .  S
Cu102       N110   2.049       .  S
N103        N104   1.319       .  A
N103        C107   1.354       .  A
N104        C105   1.333       .  A
C105        C106   1.378       .  A
C105        H108   1.082       .  S
C106        C107   1.390       .  A
C107        H109   1.083       .  S
N110        N111   1.319       .  A
N110        C114   1.339       .  A
N111        C112   1.351       .  A
C112        C113   1.390       .  A
C112        H115   1.082       .  S
C113        C114   1.380       .  A
C113        C834   1.480       .  S
C114        H116   1.082       .  S
N117        N118   1.328       .  A
N117        C121   1.349       .  A
N117       Cu125   2.089       .  S
N118        C119   1.341       .  A
N118       Cu124   2.077       .  S
C119        C120   1.376       .  A
C119        H122   1.082       .  S
C120        C121   1.381       .  A
C121        H123   1.082       .  S
Cu124       N127   2.073       .  S
Cu125       N135   2.086       .  S
Cu126       N128   2.052       .  S
Cu126       N134   2.053       .  S
N127        N128   1.319       .  A
N127        C131   1.353       .  A
N128        C129   1.334       .  A
C129        C130   1.379       .  A
C129        H132   1.082       .  S
C130        C131   1.389       .  A
C131        H133   1.083       .  S
N134        N135   1.319       .  A
N134        C138   1.340       .  A
N135        C136   1.350       .  A
C136        C137   1.392       .  A
C136        H139   1.081       .  S
C137        C138   1.382       .  A
C137        C827   1.484       .  S
C138        H140   1.083       .  S
N141        N142   1.328       .  A
N141        C145   1.348       .  A
N141       Cu149   2.089       .  S
N142        C143   1.342       .  A
N142       Cu148   2.082       .  S
C143        C144   1.376       .  A
C143        H146   1.082       .  S
C144        C145   1.380       .  A
C144        C495   1.465       .  S
C145        H147   1.082       .  S
Cu148       N151   2.077       .  S
Cu149       N159   2.086       .  S
Cu150       N152   2.048       .  S
Cu150       N158   2.049       .  S
N151        N152   1.319       .  A
N151        C155   1.354       .  A
N152        C153   1.333       .  A
C153        C154   1.378       .  A
C153        H156   1.082       .  S
C154        C155   1.390       .  A
C155        H157   1.083       .  S
N158        N159   1.319       .  A
N158        C162   1.339       .  A
N159        C160   1.350       .  A
C160        C161   1.390       .  A
C160        H163   1.081       .  S
C161        C162   1.380       .  A
C161        C814   1.479       .  S
C162        H164   1.082       .  S
O165       Cu173   1.962       .  S
O165        C175   1.273       .  A
O166       Cu173   1.960       .  S
O166        C176   1.272       .  A
O167       Cu173   1.958       .  S
O167        C177   1.272       .  A
O168       Cu173   1.960       .  S
O168        C178   1.272       .  A
O169       Cu174   2.050       .  S
O169        C178   1.282       .  A
O170       Cu174   2.049       .  S
O170        C177   1.282       .  A
O171       Cu174   2.047       .  S
O171        C176   1.281       .  A
O172       Cu174   2.049       .  S
O172        C175   1.282       .  A
Cu173      Cu174   2.372       .  S
C175        C216   1.469       .  S
C176        C240   1.467       .  S
C177        C264   1.468       .  S
C178        C192   1.469       .  S
N179        N180   1.328       .  A
N179        C183   1.349       .  A
N179       Cu187   2.094       .  S
N180        C181   1.342       .  A
N180       Cu186   2.077       .  S
C181        C182   1.376       .  A
C181        H184   1.082       .  S
C182        C183   1.382       .  A
C183        H185   1.082       .  S
Cu186       N189   2.073       .  S
Cu187       N197   2.091       .  S
Cu188       N190   2.054       .  S
Cu188       N196   2.055       .  S
N189        N190   1.319       .  A
N189        C193   1.353       .  A
N190        C191   1.334       .  A
C191        C192   1.379       .  A
C191        H194   1.082       .  S
C192        C193   1.389       .  A
C193        H195   1.083       .  S
N196        N197   1.320       .  A
N196        C200   1.340       .  A
N197        C198   1.351       .  A
C198        C199   1.391       .  A
C198        H201   1.083       .  S
C199        C200   1.382       .  A
C199        C844   1.484       .  S
C200        H202   1.084       .  S
N203        N204   1.328       .  A
N203        C207   1.348       .  A
N203       Cu211   2.090       .  S
N204        C205   1.343       .  A
N204       Cu210   2.082       .  S
C205        C206   1.377       .  A
C205        H208   1.082       .  S
C206        C207   1.380       .  A
C207        H209   1.082       .  S
Cu210       N213   2.078       .  S
Cu211       N221   2.087       .  S
Cu212       N214   2.051       .  S
Cu212       N220   2.052       .  S
N213        N214   1.319       .  A
N213        C217   1.354       .  A
N214        C215   1.334       .  A
C215        C216   1.379       .  A
C215        H218   1.082       .  S
C216        C217   1.390       .  A
C217        H219   1.083       .  S
N220        N221   1.319       .  A
N220        C224   1.340       .  A
N221        C222   1.350       .  A
C222        C223   1.391       .  A
C222        H225   1.081       .  S
C223        C224   1.381       .  A
C223        C837   1.482       .  S
C224        H226   1.083       .  S
N227        N228   1.327       .  A
N227        C231   1.349       .  A
N227       Cu235   2.089       .  S
N228        C229   1.341       .  A
N228       Cu234   2.076       .  S
C229        C230   1.376       .  A
C229        H232   1.082       .  S
C230        C231   1.381       .  A
C231        H233   1.082       .  S
Cu234       N237   2.072       .  S
Cu235       N245   2.086       .  S
Cu236       N238   2.052       .  S
Cu236       N244   2.053       .  S
N237        N238   1.319       .  A
N237        C241   1.353       .  A
N238        C239   1.334       .  A
C239        C240   1.379       .  A
C239        H242   1.082       .  S
C240        C241   1.388       .  A
C241        H243   1.083       .  S
N244        N245   1.319       .  A
N244        C248   1.340       .  A
N245        C246   1.350       .  A
C246        C247   1.390       .  A
C246        H249   1.082       .  S
C247        C248   1.381       .  A
C247        C824   1.481       .  S
C248        H250   1.082       .  S
N251        N252   1.328       .  A
N251        C255   1.348       .  A
N251       Cu259   2.088       .  S
N252        C253   1.342       .  A
N252       Cu258   2.080       .  S
C253        C254   1.376       .  A
C253        H256   1.082       .  S
C254        C255   1.380       .  A
C255        H257   1.082       .  S
Cu258       N261   2.076       .  S
Cu259       N269   2.085       .  S
Cu260       N262   2.049       .  S
Cu260       N268   2.050       .  S
N261        N262   1.319       .  A
N261        C265   1.354       .  A
N262        C263   1.333       .  A
C263        C264   1.378       .  A
C263        H266   1.082       .  S
C264        C265   1.390       .  A
C265        H267   1.083       .  S
N268        N269   1.319       .  A
N268        C272   1.340       .  A
N269        C270   1.350       .  A
C270        C271   1.390       .  A
C270        H273   1.081       .  S
C271        C272   1.380       .  A
C271        C817   1.480       .  S
C272        H274   1.083       .  S
O275       Cu283   1.967       .  S
O275        C285   1.273       .  A
O276       Cu283   1.964       .  S
O276        C286   1.273       .  A
O277       Cu283   1.961       .  S
O277        C287   1.272       .  A
O278       Cu283   1.961       .  S
O278        C288   1.272       .  A
O279       Cu284   2.051       .  S
O279        C288   1.282       .  A
O280       Cu284   2.052       .  S
O280        C287   1.282       .  A
O281       Cu284   2.048       .  S
O281        C286   1.281       .  A
O282       Cu284   2.049       .  S
O282        C285   1.282       .  A
Cu283      Cu284   2.372       .  S
C285        C302   1.470       .  S
C286        C374   1.469       .  S
C287        C350   1.470       .  S
C288        C326   1.470       .  S
N289        N290   1.328       .  A
N289        C293   1.348       .  A
N289       Cu297   2.091       .  S
N290        C291   1.344       .  A
N290       Cu296   2.085       .  S
C291        C292   1.378       .  A
C291        H294   1.082       .  S
C292        C293   1.381       .  A
C292        C726   1.468       .  S
C293        H295   1.082       .  S
Cu296       N299   2.081       .  S
Cu297       N307   2.088       .  S
Cu298       N300   2.053       .  S
Cu298       N306   2.054       .  S
N299        N300   1.320       .  A
N299        C303   1.354       .  A
N300        C301   1.335       .  A
C301        C302   1.379       .  A
C301        H304   1.082       .  S
C302        C303   1.390       .  A
C303        H305   1.082       .  S
N306        N307   1.320       .  A
N306        C310   1.340       .  A
N307        C308   1.351       .  A
C308        C309   1.390       .  A
C308        H311   1.082       .  S
C309        C310   1.381       .  A
C309        C804   1.481       .  S
C310        H312   1.082       .  S
N313        N314   1.328       .  A
N313        C317   1.347       .  A
N313       Cu321   2.086       .  S
N314        C315   1.343       .  A
N314       Cu320   2.084       .  S
C315        C316   1.378       .  A
C315        H318   1.082       .  S
C316        C317   1.379       .  A
C317        H319   1.082       .  S
Cu320       N323   2.080       .  S
Cu321       N331   2.083       .  S
Cu322       N324   2.050       .  S
Cu322       N330   2.051       .  S
N323        N324   1.319       .  A
N323        C327   1.354       .  A
N324        C325   1.334       .  A
C325        C326   1.378       .  A
C325        H328   1.082       .  S
C326        C327   1.390       .  A
C327        H329   1.082       .  S
N330        N331   1.319       .  A
N330        C334   1.340       .  A
N331        C332   1.350       .  A
C332        C333   1.388       .  A
C332        H335   1.082       .  S
C333        C334   1.380       .  A
C333        C797   1.476       .  S
C334        H336   1.082       .  S
N337        N338   1.328       .  A
N337        C341   1.348       .  A
N337       Cu345   2.090       .  S
N338        C339   1.344       .  A
N338       Cu344   2.086       .  S
C339        C340   1.378       .  A
C339        H342   1.082       .  S
C340        C341   1.380       .  A
C341        H343   1.082       .  S
Cu344       N347   2.082       .  S
Cu345       N355   2.086       .  S
Cu346       N348   2.050       .  S
Cu346       N354   2.051       .  S
N347        N348   1.319       .  A
N347        C351   1.355       .  A
N348        C349   1.334       .  A
C349        C350   1.378       .  A
C349        H352   1.082       .  S
C350        C351   1.390       .  A
C351        H353   1.082       .  S
N354        N355   1.319       .  A
N354        C358   1.340       .  A
N355        C356   1.350       .  A
C356        C357   1.390       .  A
C356        H359   1.082       .  S
C357        C358   1.381       .  A
C357        C787   1.480       .  S
C358        H360   1.082       .  S
N361        N362   1.327       .  A
N361        C365   1.348       .  A
N361       Cu369   2.086       .  S
N362        C363   1.343       .  A
N362       Cu368   2.081       .  S
C363        C364   1.377       .  A
C363        H366   1.082       .  S
C364        C365   1.380       .  A
C365        H367   1.082       .  S
Cu368       N371   2.078       .  S
Cu369       N379   2.083       .  S
Cu370       N372   2.051       .  S
Cu370       N378   2.052       .  S
N371        N372   1.319       .  A
N371        C375   1.354       .  A
N372        C373   1.334       .  A
C373        C374   1.379       .  A
C373        H376   1.082       .  S
C374        C375   1.389       .  A
C375        H377   1.082       .  S
N378        N379   1.319       .  A
N378        C382   1.340       .  A
N379        C380   1.350       .  A
C380        C381   1.389       .  A
C380        H383   1.082       .  S
C381        C382   1.381       .  A
C381        C777   1.479       .  S
C382        H384   1.082       .  S
O385       Cu393   2.051       .  S
O385        C395   1.282       .  A
O386       Cu393   2.051       .  S
O386        C396   1.282       .  A
O387       Cu393   2.050       .  S
O387        C397   1.282       .  A
O388       Cu393   2.051       .  S
O388        C398   1.282       .  A
O389       Cu394   1.965       .  S
O389        C398   1.273       .  A
O390       Cu394   1.962       .  S
O390        C397   1.272       .  A
O391       Cu394   1.961       .  S
O391        C396   1.272       .  A
O392       Cu394   1.962       .  S
O392        C395   1.272       .  A
Cu393      Cu394   2.372       .  S
C395        C460   1.470       .  S
C396        C436   1.470       .  S
C397        C484   1.469       .  S
C398        C412   1.471       .  S
N399        N400   1.328       .  A
N399        C403   1.348       .  A
N399       Cu407   2.089       .  S
N400        C401   1.343       .  A
N400       Cu406   2.085       .  S
C401        C402   1.378       .  A
C401        H404   1.082       .  S
C402        C403   1.380       .  A
C403        H405   1.082       .  S
Cu406       N409   2.081       .  S
Cu407       N417   2.086       .  S
Cu408       N410   2.052       .  S
Cu408       N416   2.053       .  S
N409        N410   1.319       .  A
N409        C413   1.354       .  A
N410        C411   1.334       .  A
C411        C412   1.379       .  A
C411        H414   1.082       .  S
C412        C413   1.390       .  A
C413        H415   1.082       .  S
N416        N417   1.319       .  A
N416        C420   1.340       .  A
N417        C418   1.350       .  A
C418        C419   1.392       .  A
C418        H421   1.082       .  S
C419        C420   1.382       .  A
C419        C807   1.483       .  S
C420        H422   1.083       .  S
N423        N424   1.328       .  A
N423        C427   1.347       .  A
N423       Cu431   2.087       .  S
N424        C425   1.344       .  A
N424       Cu430   2.085       .  S
C425        C426   1.378       .  A
C425        H428   1.082       .  S
C426        C427   1.380       .  A
C426        C497   1.466       .  S
C427        H429   1.082       .  S
Cu430       N433   2.081       .  S
Cu431       N441   2.084       .  S
Cu432       N434   2.049       .  S
Cu432       N440   2.050       .  S
N433        N434   1.319       .  A
N433        C437   1.355       .  A
N434        C435   1.333       .  A
C435        C436   1.378       .  A
C435        H438   1.082       .  S
C436        C437   1.390       .  A
C437        H439   1.082       .  S
N440        N441   1.319       .  A
N440        C444   1.340       .  A
N441        C442   1.350       .  A
C442        C443   1.389       .  A
C442        H445   1.082       .  S
C443        C444   1.380       .  A
C443        C794   1.477       .  S
C444        H446   1.083       .  S
N447        N448   1.328       .  A
N447        C451   1.348       .  A
N447       Cu455   2.087       .  S
N448        C449   1.343       .  A
N448       Cu454   2.084       .  S
C449        C450   1.378       .  A
C449        H452   1.082       .  S
C450        C451   1.380       .  A
C451        H453   1.082       .  S
Cu454       N457   2.080       .  S
Cu455       N465   2.084       .  S
Cu456       N458   2.051       .  S
Cu456       N464   2.052       .  S
N457        N458   1.319       .  A
N457        C461   1.354       .  A
N458        C459   1.334       .  A
C459        C460   1.378       .  A
C459        H462   1.082       .  S
C460        C461   1.390       .  A
C461        H463   1.082       .  S
N464        N465   1.319       .  A
N464        C468   1.340       .  A
N465        C466   1.350       .  A
C466        C467   1.391       .  A
C466        H469   1.081       .  S
C467        C468   1.381       .  A
C467        C784   1.482       .  S
C468        H470   1.082       .  S
N471        N472   1.328       .  A
N471        C475   1.348       .  A
N471       Cu479   2.086       .  S
N472        C473   1.343       .  A
N472       Cu478   2.083       .  S
C473        C474   1.378       .  A
C473        H476   1.082       .  S
C474        C475   1.380       .  A
C475        H477   1.082       .  S
Cu478       N481   2.079       .  S
Cu479       N489   2.083       .  S
Cu480       N482   2.051       .  S
Cu480       N488   2.052       .  S
N481        N482   1.319       .  A
N481        C485   1.354       .  A
N482        C483   1.334       .  A
C483        C484   1.378       .  A
C483        H486   1.082       .  S
C484        C485   1.390       .  A
C485        H487   1.082       .  S
N488        N489   1.319       .  A
N488        C492   1.339       .  A
N489        C490   1.350       .  A
C490        C491   1.391       .  A
C490        H493   1.082       .  S
C491        C492   1.381       .  A
C491        C774   1.482       .  S
C492        H494   1.083       .  S
C495        C496   1.401       .  A
C495        C500   1.401       .  A
C496        C497   1.401       .  A
C496        H501   1.084       .  S
C497        C498   1.402       .  A
C498        C499   1.402       .  A
C498        H502   1.084       .  S
C499        C500   1.401       .  A
C499        C655   1.466       .  S
C500        H503   1.084       .  S
O504       Cu512   2.050       .  S
O504        C514   1.282       .  A
O505       Cu512   2.051       .  S
O505        C515   1.282       .  A
O506       Cu512   2.051       .  S
O506        C516   1.282       .  A
O507       Cu512   2.051       .  S
O507        C517   1.282       .  A
O508       Cu513   1.963       .  S
O508        C517   1.273       .  A
O509       Cu513   1.961       .  S
O509        C516   1.272       .  A
O510       Cu513   1.961       .  S
O510        C515   1.273       .  A
O511       Cu513   1.961       .  S
O511        C514   1.272       .  A
Cu512      Cu513   2.372       .  S
C514        C603   1.469       .  S
C515        C531   1.470       .  S
C516        C555   1.469       .  S
C517        C579   1.470       .  S
N518        N519   1.328       .  A
N518        C522   1.348       .  A
N518       Cu526   2.090       .  S
N519        C520   1.344       .  A
N519       Cu525   2.086       .  S
C520        C521   1.378       .  A
C520        H523   1.082       .  S
C521        C522   1.380       .  A
C521        C724   1.467       .  S
C522        H524   1.082       .  S
Cu525       N528   2.082       .  S
Cu526       N536   2.086       .  S
Cu527       N529   2.047       .  S
Cu527       N535   2.048       .  S
N528        N529   1.319       .  A
N528        C532   1.355       .  A
N529        C530   1.333       .  A
C530        C531   1.378       .  A
C530        H533   1.082       .  S
C531        C532   1.391       .  A
C532        H534   1.082       .  S
N535        N536   1.319       .  A
N535        C539   1.339       .  A
N536        C537   1.351       .  A
C537        C538   1.390       .  A
C537        H540   1.082       .  S
C538        C539   1.380       .  A
C538        C764   1.478       .  S
C539        H541   1.082       .  S
N542        N543   1.328       .  A
N542        C546   1.348       .  A
N542       Cu550   2.091       .  S
N543        C544   1.343       .  A
N543       Cu549   2.083       .  S
C544        C545   1.377       .  A
C544        H547   1.082       .  S
C545        C546   1.381       .  A
C546        H548   1.082       .  S
Cu549       N552   2.079       .  S
Cu550       N560   2.088       .  S
Cu551       N553   2.051       .  S
Cu551       N559   2.052       .  S
N552        N553   1.319       .  A
N552        C556   1.354       .  A
N553        C554   1.334       .  A
C554        C555   1.378       .  A
C554        H557   1.082       .  S
C555        C556   1.390       .  A
C556        H558   1.082       .  S
N559        N560   1.319       .  A
N559        C563   1.340       .  A
N560        C561   1.350       .  A
C561        C562   1.391       .  A
C561        H564   1.082       .  S
C562        C563   1.381       .  A
C562        C754   1.482       .  S
C563        H565   1.082       .  S
N566        N567   1.328       .  A
N566        C570   1.347       .  A
N566       Cu574   2.084       .  S
N567        C568   1.343       .  A
N567       Cu573   2.084       .  S
C568        C569   1.378       .  A
C568        H571   1.082       .  S
C569        C570   1.379       .  A
C570        H572   1.082       .  S
Cu573       N576   2.080       .  S
Cu574       N584   2.081       .  S
Cu575       N577   2.051       .  S
Cu575       N583   2.052       .  S
N576        N577   1.319       .  A
N576        C580   1.354       .  A
N577        C578   1.334       .  A
C578        C579   1.378       .  A
C578        H581   1.082       .  S
C579        C580   1.390       .  A
C580        H582   1.082       .  S
N583        N584   1.319       .  A
N583        C587   1.339       .  A
N584        C585   1.349       .  A
C585        C586   1.390       .  A
C585        H588   1.081       .  S
C586        C587   1.382       .  A
C586        C744   1.481       .  S
C587        H589   1.083       .  S
N590        N591   1.328       .  A
N590        C594   1.348       .  A
N590       Cu598   2.088       .  S
N591        C592   1.343       .  A
N591       Cu597   2.082       .  S
C592        C593   1.377       .  A
C592        H595   1.082       .  S
C593        C594   1.380       .  A
C594        H596   1.082       .  S
Cu597       N600   2.078       .  S
Cu598       N608   2.085       .  S
Cu599       N601   2.050       .  S
Cu599       N607   2.051       .  S
N600        N601   1.319       .  A
N600        C604   1.354       .  A
N601        C602   1.334       .  A
C602        C603   1.378       .  A
C602        H605   1.082       .  S
C603        C604   1.389       .  A
C604        H606   1.082       .  S
N607        N608   1.319       .  A
N607        C611   1.340       .  A
N608        C609   1.350       .  A
C609        C610   1.390       .  A
C609        H612   1.082       .  S
C610        C611   1.381       .  A
C610        C737   1.481       .  S
C611        H613   1.082       .  S
O614       Cu622   1.963       .  S
O614        C624   1.273       .  A
O615       Cu622   1.963       .  S
O615        C625   1.273       .  A
O616       Cu622   1.960       .  S
O616        C626   1.272       .  A
O617       Cu622   1.960       .  S
O617        C627   1.272       .  A
O618       Cu623   2.052       .  S
O618        C627   1.282       .  A
O619       Cu623   2.051       .  S
O619        C626   1.282       .  A
O620       Cu623   2.049       .  S
O620        C625   1.282       .  A
O621       Cu623   2.050       .  S
O621        C624   1.281       .  A
Cu622      Cu623   2.372       .  S
C624        C689   1.470       .  S
C625        C665   1.469       .  S
C626        C713   1.469       .  S
C627        C641   1.470       .  S
N628        N629   1.328       .  A
N628        C632   1.348       .  A
N628       Cu636   2.089       .  S
N629        C630   1.344       .  A
N629       Cu635   2.085       .  S
C630        C631   1.378       .  A
C630        H633   1.082       .  S
C631        C632   1.380       .  A
C632        H634   1.082       .  S
Cu635       N638   2.080       .  S
Cu636       N646   2.085       .  S
Cu637       N639   2.050       .  S
Cu637       N645   2.051       .  S
N638        N639   1.319       .  A
N638        C642   1.355       .  A
N639        C640   1.334       .  A
C640        C641   1.378       .  A
C640        H643   1.082       .  S
C641        C642   1.390       .  A
C642        H644   1.082       .  S
N645        N646   1.319       .  A
N645        C649   1.340       .  A
N646        C647   1.350       .  A
C647        C648   1.390       .  A
C647        H650   1.082       .  S
C648        C649   1.381       .  A
C648        C767   1.480       .  S
C649        H651   1.083       .  S
N652        N653   1.328       .  A
N652        C656   1.348       .  A
N652       Cu660   2.090       .  S
N653        C654   1.343       .  A
N653       Cu659   2.082       .  S
C654        C655   1.377       .  A
C654        H657   1.082       .  S
C655        C656   1.381       .  A
C656        H658   1.082       .  S
Cu659       N662   2.078       .  S
Cu660       N670   2.087       .  S
Cu661       N663   2.052       .  S
Cu661       N669   2.052       .  S
N662        N663   1.319       .  A
N662        C666   1.354       .  A
N663        C664   1.334       .  A
C664        C665   1.379       .  A
C664        H667   1.082       .  S
C665        C666   1.389       .  A
C666        H668   1.082       .  S
N669        N670   1.319       .  A
N669        C673   1.339       .  A
N670        C671   1.350       .  A
C671        C672   1.392       .  A
C671        H674   1.081       .  S
C672        C673   1.382       .  A
C672        C757   1.484       .  S
C673        H675   1.083       .  S
N676        N677   1.328       .  A
N676        C680   1.348       .  A
N676       Cu684   2.088       .  S
N677        C678   1.344       .  A
N677       Cu683   2.086       .  S
C678        C679   1.378       .  A
C678        H681   1.082       .  S
C679        C680   1.380       .  A
C680        H682   1.082       .  S
Cu683       N686   2.082       .  S
Cu684       N694   2.084       .  S
Cu685       N687   2.048       .  S
Cu685       N693   2.049       .  S
N686        N687   1.319       .  A
N686        C690   1.355       .  A
N687        C688   1.334       .  A
C688        C689   1.378       .  A
C688        H691   1.082       .  S
C689        C690   1.390       .  A
C690        H692   1.082       .  S
N693        N694   1.319       .  A
N693        C697   1.339       .  A
N694        C695   1.350       .  A
C695        C696   1.390       .  A
C695        H698   1.082       .  S
C696        C697   1.380       .  A
C696        C747   1.479       .  S
C697        H699   1.082       .  S
N700        N701   1.328       .  A
N700        C704   1.348       .  A
N700       Cu708   2.089       .  S
N701        C702   1.343       .  A
N701       Cu707   2.083       .  S
C702        C703   1.377       .  A
C702        H705   1.082       .  S
C703        C704   1.380       .  A
C704        H706   1.082       .  S
Cu707       N710   2.079       .  S
Cu708       N718   2.085       .  S
Cu709       N711   2.049       .  S
Cu709       N717   2.050       .  S
N710        N711   1.319       .  A
N710        C714   1.355       .  A
N711        C712   1.333       .  A
C712        C713   1.378       .  A
C712        H715   1.082       .  S
C713        C714   1.390       .  A
C714        H716   1.082       .  S
N717        N718   1.319       .  A
N717        C721   1.339       .  A
N718        C719   1.350       .  A
C719        C720   1.392       .  A
C719        H722   1.081       .  S
C720        C721   1.382       .  A
C720        C734   1.483       .  S
C721        H723   1.083       .  S
C724        C725   1.402       .  A
C724        C729   1.401       .  A
C725        C726   1.402       .  A
C725        H730   1.084       .  S
C726        C727   1.402       .  A
C727        C728   1.403       .  A
C727        H731   1.084       .  S
C728        C729   1.401       .  A
C729        H732   1.084       .  S
C733        C734   1.404       .  A
C733        C738   1.395   1_655  A
C733        H740   1.084       .  S
C734        C735   1.412       .  A
C735        C736   1.404   1_655  A
C735       Br742   1.917       .  S
C736        C737   1.404       .  A
C736        H741   1.083       .  S
C737        C738   1.411       .  A
C738       Br739   1.922       .  S
C743        C744   1.403       .  A
C743        C748   1.395   1_455  A
C743        H750   1.084       .  S
C744        C745   1.412       .  A
C745        C746   1.404   1_455  A
C745       Br752   1.918       .  S
C746        C747   1.404       .  A
C746        H751   1.083       .  S
C747        C748   1.411       .  A
C748       Br749   1.922       .  S
C753        C754   1.405       .  A
C753        C758   1.404   1_455  A
C753        H760   1.083       .  S
C754        C755   1.412       .  A
C755        C756   1.396   1_455  A
C755       Br762   1.922       .  S
C756        C757   1.404       .  A
C756        H761   1.084       .  S
C757        C758   1.412       .  A
C758       Br759   1.917       .  S
C763        C764   1.404       .  A
C763        C768   1.404   1_455  A
C763        H770   1.083       .  S
C764        C765   1.410       .  A
C765        C766   1.396   1_455  A
C765       Br772   1.921       .  S
C766        C767   1.403       .  A
C766        H771   1.084       .  S
C767        C768   1.411       .  A
C768       Br769   1.918       .  S
C773        C774   1.404       .  A
C773        C778   1.395   1_565  A
C773        H780   1.084       .  S
C774        C775   1.411       .  A
C775        C776   1.403   1_565  A
C775       Br782   1.918       .  S
C776        C777   1.404       .  A
C776        H781   1.083       .  S
C777        C778   1.411       .  A
C778       Br779   1.922       .  S
C783        C784   1.403       .  A
C783        C788   1.396   1_565  A
C783        H790   1.084       .  S
C784        C785   1.411       .  A
C785        C786   1.404   1_565  A
C785       Br792   1.918       .  S
C786        C787   1.404       .  A
C786        H791   1.083       .  S
C787        C788   1.411       .  A
C788       Br789   1.922       .  S
C793        C794   1.403       .  A
C793        C798   1.396   1_565  A
C793        H800   1.084       .  S
C794        C795   1.410       .  A
C795        C796   1.403   1_565  A
C795       Br802   1.918       .  S
C796        C797   1.404       .  A
C796        H801   1.084       .  S
C797        C798   1.409       .  A
C798       Br799   1.921       .  S
C803        C804   1.405       .  A
C803        C808   1.404   1_545  A
C803        H810   1.083       .  S
C804        C805   1.411       .  A
C805        C806   1.396   1_545  A
C805       Br812   1.922       .  S
C806        C807   1.404       .  A
C806        H811   1.084       .  S
C807        C808   1.412       .  A
C808       Br809   1.917       .  S
C813        C814   1.404       .  A
C813        C818   1.404   1_554  A
C813        H820   1.083       .  S
C814        C815   1.411       .  A
C815        C816   1.396   1_554  A
C815       Br822   1.922       .  S
C816        C817   1.403       .  A
C816        H821   1.084       .  S
C817        C818   1.411       .  A
C818       Br819   1.918       .  S
C823        C824   1.404       .  A
C823        C828   1.404   1_556  A
C823        H830   1.083       .  S
C824        C825   1.412       .  A
C825        C826   1.396   1_556  A
C825       Br832   1.922       .  S
C826        C827   1.404       .  A
C826        H831   1.084       .  S
C827        C828   1.412       .  A
C828       Br829   1.917       .  S
C833        C834   1.405       .  A
C833        C838   1.405   1_554  A
C833        H840   1.083       .  S
C834        C835   1.411       .  A
C835        C836   1.395   1_554  A
C835       Br842   1.922       .  S
C836        C837   1.403       .  A
C836        H841   1.084       .  S
C837        C838   1.411       .  A
C838       Br839   1.918       .  S
C843        C844   1.405       .  A
C843        C848   1.405   1_556  A
C843        H850   1.083       .  S
C844        C845   1.412       .  A
C845        C846   1.397   1_556  A
C845       Br852   1.922       .  S
C846        C847   1.404       .  A
C846        H851   1.084       .  S
C847        C848   1.412       .  A
C848       Br849   1.917       .  S
