geometry optimzed in LAMMPS
_audit_creation_date              2020-12-01 
_audit_creation_method            'lammps2cif' 
_symmetry_space_group_name_H-M    'P1' 
_symmetry_Int_Tables_number       1 
_symmetry_cell_setting            triclinic 
loop_ 
_symmetry_equiv_pos_as_xyz 
  x,y,z 
_cell_length_a                    25.90852103 
_cell_length_b                    25.64530550100468 
_cell_length_c                    29.70841025772489 
_cell_angle_alpha                 89.65295714882438 
_cell_angle_beta                  88.9666198552987 
_cell_angle_gamma                 90.03813697773288 
loop_ 
_atom_site_label 
_atom_site_type_symbol 
_atom_site_fract_x 
_atom_site_fract_y 
_atom_site_fract_z 
_atom_site_charge 
C1          C  0.52326623  0.53493815  0.23061464     0.89700
C2          C  0.56465403  0.52435794  0.26583150    -0.50600
C3          C  0.56054260  0.47605455  0.28524491     0.12600
C4          C  0.51497841  0.44343684  0.26840449     0.23500
C5          C  0.52833550  0.48984417  0.19726848    -0.51300
C6          C  0.52465015  0.44192140  0.21718906     0.12700
C7          C  0.47178240  0.52653338  0.25504917    -0.50800
C8          C  0.46714974  0.47885982  0.27483447     0.13300
H9          H  0.59570752  0.55136547  0.27306343     0.17800
H10         H  0.51149753  0.40430880  0.28446421     0.03500
H11         H  0.53708420  0.49526638  0.16162675     0.18100
H12         H  0.44138891  0.55573538  0.25646515     0.17900
C13         C  0.98801172  0.07577873  0.27195610     0.89700
C14         C  0.97757423  0.11890880  0.23713310    -0.50600
C15         C  0.92965483  0.11583569  0.21875353     0.12600
C16         C  0.89712958  0.06935251  0.23616356     0.23500
C17         C  0.94325954  0.08007099  0.30635302    -0.51300
C18         C  0.89566772  0.07722037  0.28743830     0.12700
C19         C  0.97898051  0.02451614  0.24743012    -0.50800
C20         C  0.93156445  0.02078059  0.22877327     0.13300
H21         H  0.00464414  0.15014908  0.22919792     0.17800
H22         H  0.85832842  0.06666742  0.22098894     0.03500
H23         H  0.94868156  0.08704909  0.34199448     0.18100
H24         H  0.00743127  0.99343178  0.24550607     0.17900
C25         C  0.98715781  0.47610622  0.26747493     0.89700
C26         C  0.94239331  0.46731288  0.30130960    -0.50600
C27         C  0.89479058  0.47166106  0.28255198     0.12600
C28         C  0.89630669  0.48539370  0.23208799     0.23500
C29         C  0.97737805  0.43701389  0.22960656    -0.51300
C30         C  0.92944865  0.44145653  0.21148745     0.12700
C31         C  0.97759548  0.52977532  0.24686196    -0.50800
C32         C  0.93024993  0.53497169  0.22836660     0.13300
H33         H  0.94785011  0.45634190  0.33628376     0.17800
H34         H  0.85753556  0.48927338  0.21701856     0.03500
H35         H  0.00460667  0.40672712  0.21988202     0.18100
H36         H  0.00587910  0.56111309  0.24690249     0.17900
C37         C  0.06472875  0.76779705  0.94160815     0.89700
C38         C  0.04886079  0.71930009  0.91541057    -0.50600
C39         C  0.06788437  0.71841052  0.87238222     0.12600
C40         C  0.10116471  0.76635185  0.85939434     0.23500
C41         C  0.12377254  0.76902048  0.93882932    -0.51300
C42         C  0.14293997  0.76838615  0.89569569     0.12700
C43         C  0.04709254  0.81410583  0.91302221    -0.50800
C44         C  0.06613949  0.81345464  0.87003503     0.13300
H45         H  0.02416538  0.68876203  0.92940806     0.17800
H46         H  0.11662947  0.76580979  0.82426627     0.03500
H47         H  0.14816063  0.77073729  0.96815798     0.18100
H48         H  0.02157842  0.84457197  0.92557128     0.17900
C49         C  0.37764305  0.77552024  0.93543427     0.89700
C50         C  0.39479500  0.82235485  0.90671942    -0.50600
C51         C  0.37601211  0.82184143  0.86421273     0.12600
C52         C  0.34121007  0.77451956  0.85435658     0.23500
C53         C  0.31865915  0.77586292  0.93459310    -0.51300
C54         C  0.29941831  0.77518334  0.89213060     0.12700
C55         C  0.39405554  0.72757807  0.90828741    -0.50800
C56         C  0.37510222  0.72703565  0.86584234     0.13300
H57         H  0.42015636  0.85285470  0.91871404     0.17800
H58         H  0.32574663  0.77405954  0.81971427     0.03500
H59         H  0.29430613  0.77594012  0.96476200     0.18100
H60         H  0.41926490  0.69729939  0.92114275     0.17900
O61         O  0.52592868  0.82796106  0.18694900    -0.54600
C62         C  0.52786131  0.67614175  0.16587794     0.78000
O63         O  0.50761026  0.78284271  0.04212775    -0.55800
C64         C  0.52936878  0.87080004  0.16589016     0.78000
C65         C  0.64267962  0.77537941  0.09815129     0.80400
Cd66       Cd  0.53554727  0.77391511  0.11954426     1.37500
O67         O  0.50299848  0.71547892  0.17977189    -0.54600
O68         O  0.62511835  0.78640946  0.13680971    -0.53400
C69         C  0.46017887  0.77552876  0.05030416     0.80300
O70         O  0.61066381  0.76378414  0.06816233    -0.55800
O71         O  0.55424830  0.68133361  0.13000644    -0.54300
O72         O  0.53290698  0.86908091  0.12348344    -0.54300
O73         O  0.44660494  0.76745082  0.09084453    -0.53400
O74         O  0.91042693  0.83891952  0.19178371    -0.54600
C75         C  0.90791062  0.67725443  0.16996128     0.78000
O76         O  0.83157872  0.77842841  0.07232260    -0.55800
C77         C  0.90807828  0.88039831  0.16861679     0.78000
C78         C  0.98023479  0.77355622  0.05771337     0.80400
Cd79       Cd  0.90178197  0.77841593  0.12673636     1.37500
O80         O  0.92966329  0.71675704  0.18670150    -0.54600
O81         O  0.99220729  0.76940075  0.09867367    -0.53400
C82         C  0.79644670  0.77700669  0.10236169     0.80300
O83         O  0.93316709  0.78019711  0.04916117    -0.55800
O84         O  0.88420665  0.68424070  0.13369417    -0.54300
O85         O  0.90402593  0.87507739  0.12664589    -0.54300
O86         O  0.80999580  0.77663780  0.14301035    -0.53400
C87         C  0.52687822  0.01131751  0.22991585     0.89700
C88         C  0.53150716  0.05722857  0.19691054    -0.50600
C89         C  0.52762144  0.10461934  0.21721583     0.12600
C90         C  0.51816664  0.10174768  0.26846761     0.23500
C91         C  0.56838413  0.02128046  0.26501489    -0.51300
C92         C  0.56393785  0.06898740  0.28489210     0.12700
C93         C  0.47540409  0.01871661  0.25467055    -0.50800
C94         C  0.47054072  0.06587782  0.27487828     0.13300
H95         H  0.54009883  0.05273994  0.16119613     0.17800
H96         H  0.51457888  0.14044025  0.28487108     0.03500
H97         H  0.59952798  0.99424358  0.27205923     0.18100
H98         H  0.44521445  0.98924241  0.25597766     0.17900
O99         O  0.28860450  0.48059046  0.31484339    -0.54600
C100        C  0.12869281  0.46821741  0.32770793     0.78000
O101        O  0.21254285  0.38461602  0.42578191    -0.55800
C102        C  0.32699524  0.46344090  0.33617044     0.78000
C103        C  0.22364978  0.53441060  0.44631613     0.80400
Cd104      Cd  0.22468094  0.45953109  0.37517189     1.37500
O105        O  0.17093394  0.48175292  0.30900169    -0.54600
O106        O  0.22215110  0.54949229  0.40572810    -0.53400
C107        C  0.22231550  0.35167045  0.39535231     0.80300
O108        O  0.22592308  0.48596438  0.45349496    -0.55800
O109        O  0.13063428  0.45226078  0.36789522    -0.54300
O110        O  0.31860450  0.44692197  0.37570562    -0.54300
O111        O  0.23214526  0.36855247  0.35610978    -0.53400
O112        O  0.17183565  0.06504942  0.31261644    -0.54600
C113        C  0.33054072  0.08333944  0.33714530     0.78000
O114        O  0.22167906  0.16278126  0.42796680    -0.55800
C115        C  0.13042533  0.08063745  0.33138937     0.78000
C116        C  0.22471127  0.01138717  0.44713189     0.80400
Cd117      Cd  0.22797518  0.08825572  0.37688083     1.37500
O118        O  0.29172879  0.06604356  0.31664686    -0.54600
O119        O  0.22563539  0.99769015  0.40631701    -0.53400
C120        C  0.22518692  0.19597816  0.39642293     0.80300
O121        O  0.22553055  0.05963049  0.45514293    -0.55800
O122        O  0.32248959  0.10136353  0.37606868    -0.54300
O123        O  0.13385864  0.09833927  0.37075213    -0.54300
O124        O  0.23004792  0.17935645  0.35662589    -0.53400
C125        C  0.22333172  0.92826890  0.56360714     0.89700
C126        C  0.27058319  0.94619217  0.58952306    -0.50600
C127        C  0.27158532  0.92802713  0.63263583     0.12600
C128        C  0.22499348  0.89323992  0.64598934     0.23500
C129        C  0.22373818  0.86870537  0.56663282    -0.51300
C130        C  0.22448864  0.85014019  0.60980030     0.12700
C131        C  0.17676578  0.94543293  0.59222421    -0.50800
C132        C  0.17760291  0.92735099  0.63538141     0.13300
H133        H  0.30012325  0.97187655  0.57532920     0.17800
H134        H  0.22562848  0.87839959  0.68119215     0.03500
H135        H  0.22306568  0.84348726  0.53738482     0.18100
H136        H  0.14603078  0.97004269  0.57959580     0.17900
C137        C  0.22199007  0.61413000  0.56409789     0.89700
C138        C  0.17580595  0.59547123  0.59276288    -0.50600
C139        C  0.17621998  0.61334926  0.63584742     0.12600
C140        C  0.22250992  0.64874735  0.64629509     0.23500
C141        C  0.22097988  0.67369800  0.56684848    -0.51300
C142        C  0.22139759  0.69199750  0.60991211     0.12700
C143        C  0.26957828  0.59733019  0.59032224    -0.50800
C144        C  0.26970979  0.61525174  0.63337721     0.13300
H145        H  0.14598536  0.56969871  0.58038415     0.17800
H146        H  0.22279030  0.66340442  0.68141645     0.03500
H147        H  0.22056996  0.69911630  0.53745899     0.18100
H148        H  0.30008621  0.57291805  0.57632812     0.17900
O149        O  0.65578782  0.99086637  0.68525893    -0.54600
C150        C  0.81752181  0.96434911  0.67226043     0.78000
O151        O  0.72165550  0.88666842  0.57360380    -0.55800
C152        C  0.61809615  0.96541696  0.66997487     0.78000
C153        C  0.72038970  0.03593338  0.55681011     0.80400
Cd154      Cd  0.71937674  0.95908783  0.62757497     1.37500
O155        O  0.77547950  0.96729376  0.69448286    -0.54600
O156        O  0.72462366  0.04989993  0.59736264    -0.53400
C157        C  0.72558727  0.85209437  0.60384750     0.80300
O158        O  0.71517211  0.98782914  0.54954448    -0.55800
O159        O  0.81433650  0.96104592  0.63003068    -0.54300
O160        O  0.62686208  0.93824272  0.63547135    -0.54300
O161        O  0.72637304  0.86694543  0.64429009    -0.53400
O162        O  0.78118972  0.56466341  0.68698263    -0.54600
C163        C  0.62916969  0.58423090  0.66286459     0.78000
O164        O  0.72811287  0.66370150  0.56903133    -0.55800
C165        C  0.82414790  0.57677357  0.66897413     0.78000
C166        C  0.73029277  0.51154931  0.55034217     0.80400
Cd167      Cd  0.72970473  0.58800583  0.62051770     1.37500
O168        O  0.66749987  0.56217977  0.68060124    -0.54600
O169        O  0.71998806  0.49849360  0.59058631    -0.53400
C170        C  0.73191727  0.69646351  0.60044288     0.80300
O171        O  0.74091921  0.55886030  0.54285647    -0.55800
O172        O  0.63676244  0.60664564  0.62538698    -0.54300
O173        O  0.82379784  0.59229078  0.62858020    -0.54300
O174        O  0.73556319  0.67910089  0.64012755    -0.53400
C175        C  0.72407327  0.11608173  0.43845118     0.89700
C176        C  0.77035484  0.09642835  0.41058355    -0.50600
C177        C  0.77099279  0.11394969  0.36718129     0.12600
C178        C  0.72527389  0.14977359  0.35556274     0.23500
C179        C  0.72617557  0.17559480  0.43454771    -0.51300
C180        C  0.72673553  0.19334197  0.39109904     0.12700
C181        C  0.67654492  0.09980972  0.41209045    -0.50800
C182        C  0.67716206  0.11737265  0.36875081     0.13300
H183        H  0.79992151  0.07089895  0.42393758     0.17800
H184        H  0.72574569  0.16408408  0.32017222     0.03500
H185        H  0.72675975  0.20136723  0.46343173     0.18100
H186        H  0.64552816  0.07590896  0.42621231     0.17900
C187        C  0.72665244  0.42915175  0.43424414     0.89700
C188        C  0.67825616  0.44530332  0.40893153    -0.50600
C189        C  0.67702696  0.42700739  0.36604112     0.12600
C190        C  0.72455140  0.39410906  0.35222042     0.23500
C191        C  0.72815069  0.36960891  0.43173922    -0.51300
C192        C  0.72703220  0.35110363  0.38875724     0.12700
C193        C  0.77201312  0.44797779  0.40475620    -0.50800
C194        C  0.77102961  0.42986219  0.36181888     0.13300
H195        H  0.64794937  0.46959019  0.42342579     0.17800
H196        H  0.72365447  0.37922497  0.31719279     0.03500
H197        H  0.72972018  0.34436407  0.46119281     0.18100
H198        H  0.80223477  0.47353976  0.41674202     0.17900
C199        C  0.41838038  0.04015267  0.77185871     0.89700
C200        C  0.37868767  0.02977326  0.73514294    -0.50600
C201        C  0.38376740  0.98163526  0.71597950     0.12600
C202        C  0.42857172  0.94900976  0.73452436     0.23500
C203        C  0.41169641  0.99448242  0.80512511    -0.51300
C204        C  0.41640764  0.94670705  0.78537208     0.12700
C205        C  0.47098513  0.03196935  0.74927722    -0.50800
C206        C  0.47668206  0.98454234  0.72978130     0.13300
H207        H  0.34789658  0.05670514  0.72682242     0.17800
H208        H  0.43288067  0.91009800  0.71862864     0.03500
H209        H  0.40157866  0.99943110  0.84049423     0.18100
H210        H  0.50140192  0.06121974  0.74888985     0.17900
C211        C  0.96073204  0.96713220  0.73016862     0.89700
C212        C  0.00555523  0.96211478  0.69588785    -0.50600
C213        C  0.05312338  0.96502988  0.71489746     0.12600
C214        C  0.05153566  0.97385598  0.76603385     0.23500
C215        C  0.97091021  0.92456669  0.76544115    -0.51300
C216        C  0.01870813  0.92790202  0.78387767     0.12700
C217        C  0.96988263  0.01874767  0.75416742    -0.50800
C218        C  0.01728807  0.02262876  0.77284570     0.13300
H219        H  0.00018714  0.95434636  0.66036707     0.17800
H220        H  0.09028845  0.97657121  0.78130059     0.03500
H221        H  0.94374639  0.89351073  0.77371155     0.18100
H222        H  0.94143761  0.04984611  0.75589343     0.17900
C223        C  0.96304076  0.56724234  0.73256289     0.89700
C224        C  0.97289255  0.60723008  0.76965667    -0.50600
C225        C  0.02073516  0.60294705  0.78792309     0.12600
C226        C  0.05379250  0.55842709  0.76807727     0.23500
C227        C  0.00767554  0.57494275  0.69861269    -0.51300
C228        C  0.05516780  0.57082887  0.71735385     0.12700
C229        C  0.97230181  0.51399612  0.75417756    -0.50800
C230        C  0.01972748  0.50899817  0.77266182     0.13300
H231        H  0.94569698  0.63773757  0.77892576     0.17800
H232        H  0.09260215  0.55481714  0.78311702     0.03500
H233        H  0.00223597  0.58502019  0.66342684     0.18100
H234        H  0.94399749  0.48267986  0.75441352     0.17900
C235        C  0.56808619  0.27476008  0.06639823     0.89700
C236        C  0.55049934  0.32161701  0.09440648    -0.50600
C237        C  0.56885677  0.32129011  0.13706957     0.12600
C238        C  0.60393377  0.27455860  0.14780055     0.23500
C239        C  0.62712270  0.27545345  0.06770181    -0.51300
C240        C  0.64618610  0.27540257  0.11026533     0.12700
C241        C  0.55152932  0.22697969  0.09430402    -0.50800
C242        C  0.56992195  0.22711010  0.13701892     0.13300
H243        H  0.52460621  0.35158555  0.08205001     0.17800
H244        H  0.61898319  0.27450620  0.18259500     0.03500
H245        H  0.65168352  0.27603783  0.03766694     0.18100
H246        H  0.52624721  0.19664671  0.08190875     0.17900
C247        C  0.88168198  0.27417692  0.06013369     0.89700
C248        C  0.89841987  0.22811638  0.08943830    -0.50600
C249        C  0.87991016  0.23003930  0.13257342     0.12600
C250        C  0.84580938  0.27820558  0.14257766     0.23500
C251        C  0.82251788  0.27445877  0.06328218    -0.51300
C252        C  0.80351327  0.27652824  0.10651945     0.12700
C253        C  0.89876414  0.32285281  0.08551934    -0.50800
C254        C  0.88006795  0.32516607  0.12860730     0.13300
H255        H  0.92342317  0.19701547  0.07729416     0.17800
H256        H  0.83071111  0.27992156  0.17778276     0.03500
H257        H  0.79792464  0.27302739  0.03408016     0.18100
H258        H  0.92401947  0.35254241  0.07090292     0.17900
O259        O  0.43532732  0.22394438  0.81450830    -0.54600
C260        C  0.41596971  0.38248565  0.83347741     0.78000
O261        O  0.33916752  0.27425729  0.93121382    -0.55800
C262        C  0.41710979  0.18325689  0.83321335     0.78000
C263        C  0.48800552  0.28040921  0.94950746     0.80400
Cd264      Cd  0.41326225  0.28221120  0.87867782     1.37500
O265        O  0.43644886  0.34262996  0.81570915    -0.54600
O266        O  0.50212395  0.27286389  0.90908012    -0.53400
C267        C  0.30652209  0.27701619  0.90014974     0.80300
O268        O  0.44085902  0.29009095  0.95664426    -0.55800
O269        O  0.39657429  0.37682389  0.87246176    -0.54300
O270        O  0.39960178  0.18779429  0.87289246    -0.54300
O271        O  0.32329615  0.28239933  0.86023487    -0.53400
O272        O  0.03055383  0.32529540  0.80990893    -0.54600
C273        C  0.04153639  0.16298634  0.83304865     0.78000
O274        O  0.11831212  0.26623802  0.92811214    -0.55800
C275        C  0.04285259  0.36644716  0.83053425     0.78000
C276        C  0.96773921  0.26738554  0.94423711     0.80400
Cd277      Cd  0.04715102  0.26521876  0.87474304     1.37500
O278        O  0.02387494  0.20323480  0.81384222    -0.54600
O279        O  0.95586072  0.26878084  0.90313411    -0.53400
C280        C  0.15287887  0.26856733  0.89759673     0.80300
O281        O  0.01515330  0.26441342  0.95287691    -0.55800
O282        O  0.06126341  0.16950536  0.87113649    -0.54300
O283        O  0.05628559  0.36105759  0.87089614    -0.54300
O284        O  0.13862790  0.26872142  0.85713480    -0.53400
C285        C  0.48560715  0.57890513  0.72324090     0.89700
C286        C  0.44121322  0.58401694  0.69009250    -0.50600
C287        C  0.39361667  0.57909347  0.71009284     0.12600
C288        C  0.39472641  0.56857091  0.76109252     0.23500
C289        C  0.47411480  0.61989525  0.75951928    -0.51300
C290        C  0.42617911  0.61466861  0.77897080     0.12700
C291        C  0.47760254  0.52627435  0.74653668    -0.50800
C292        C  0.43026662  0.52064106  0.76643715     0.13300
H293        H  0.44680066  0.59306839  0.65455333     0.17800
H294        H  0.35589395  0.56428989  0.77720935     0.03500
H295        H  0.50045718  0.65128105  0.76771076     0.18100
H296        H  0.50703852  0.49611107  0.74754607     0.17900
C297        C  0.41754494  0.47348072  0.79102467    -0.10100
C298        C  0.41496150  0.43210462  0.81059256    -0.11700
C299        C  0.25243975  0.27381356  0.90885532    -0.10100
C300        C  0.20629060  0.27116251  0.90778823    -0.11700
C301        C  0.90397684  0.27169178  0.01429841    -0.10100
C302        C  0.92977404  0.26950916  0.98009050    -0.11700
C303        C  0.52306834  0.27748072  0.98632811    -0.10100
C304        C  0.54659628  0.27542656  0.02097587    -0.11700
C305        C  0.74830828  0.27666942  0.11615932    -0.10100
C306        C  0.70148807  0.27623297  0.11756570    -0.11700
C307        C  0.04061035  0.41735373  0.80971457    -0.10100
C308        C  0.03492660  0.46023168  0.79331761    -0.11700
C309        C  0.03855589  0.11198651  0.81292431    -0.10100
C310        C  0.03243826  0.06987723  0.79560029    -0.11700
C311        C  0.41452572  0.09172674  0.79289879    -0.10100
C312        C  0.41566016  0.13394190  0.81058835    -0.11700
C313        C  0.72740097  0.29567796  0.38011626    -0.10100
C314        C  0.72739199  0.24855618  0.38094500    -0.11700
C315        C  0.53690633  0.58347990  0.70193875    -0.10100
C316        C  0.57915254  0.58410956  0.68429899    -0.11700
C317        C  0.87138144  0.57359792  0.69323072    -0.10100
C318        C  0.91217520  0.57152045  0.71200889    -0.11700
C319        C  0.72920643  0.47503726  0.51413981    -0.10100
C320        C  0.72798908  0.45042908  0.47981032    -0.11700
C321        C  0.86691756  0.96427388  0.69368746    -0.10100
C322        C  0.90921875  0.96429698  0.71018479    -0.11700
C323        C  0.56736645  0.96725981  0.69048728    -0.10100
C324        C  0.52485544  0.97115235  0.70753101    -0.11700
C325        C  0.72188291  0.07221693  0.51992671    -0.10100
C326        C  0.72314822  0.09579722  0.48471664    -0.11700
C327        C  0.72886497  0.79799605  0.59347346    -0.10100
C328        C  0.73103785  0.75128681  0.59234254    -0.11700
C329        C  0.31051042  0.60209636  0.66369127    -0.10100
C330        C  0.34706136  0.59032400  0.68610605    -0.11700
C331        C  0.10151781  0.58421458  0.69233780    -0.10100
C332        C  0.13711379  0.59796218  0.66840004    -0.11700
C333        C  0.31174706  0.94376727  0.66284030    -0.10100
C334        C  0.34542368  0.96045482  0.68640962    -0.11700
C335        C  0.13698008  0.94046735  0.66724638    -0.10100
C336        C  0.09997886  0.95283088  0.69005632    -0.11700
C337        C  0.22360240  0.79460664  0.61897123    -0.10100
C338        C  0.22241797  0.74743485  0.61889782    -0.11700
C339        C  0.22305699  0.97441747  0.48335084    -0.10100
C340        C  0.22255170  0.94958591  0.51783938    -0.11700
C341        C  0.22198275  0.59340701  0.51826133    -0.10100
C342        C  0.22263985  0.56995247  0.48327404    -0.11700
C343        C  0.22345579  0.25048803  0.40467987    -0.10100
C344        C  0.22235341  0.29716857  0.40428306    -0.11700
C345        C  0.63677552  0.10385829  0.33823401    -0.10100
C346        C  0.60276296  0.08899037  0.31431045    -0.11700
C347        C  0.55474784  0.18769857  0.16944594    -0.10100
C348        C  0.54078443  0.15187383  0.19315628    -0.11700
C349        C  0.38156230  0.08250731  0.31717858    -0.10100
C350        C  0.42356916  0.07887009  0.29916764    -0.11700
C351        C  0.53007776  0.91935384  0.18909206    -0.10100
C352        C  0.53050197  0.96064634  0.20796555    -0.11700
C353        C  0.69695849  0.77539704  0.08984083    -0.10100
C354        C  0.74316257  0.77595411  0.09145525    -0.11700
C355        C  0.38983413  0.86219896  0.83205089    -0.10100
C356        C  0.40310088  0.89916000  0.80924004    -0.11700
C357        C  0.40503070  0.65295489  0.80953685    -0.10100
C358        C  0.38925697  0.68663058  0.83440141    -0.11700
C359        C  0.39950622  0.77597497  0.98049472    -0.10100
C360        C  0.42400290  0.77591692  0.01451357    -0.11700
C361        C  0.03838897  0.88805570  0.81347996    -0.10100
C362        C  0.05289222  0.85362580  0.83805729    -0.11700
C363        C  0.04064534  0.64198317  0.81795443    -0.10100
C364        C  0.05502502  0.67676429  0.84197256    -0.11700
C365        C  0.04275522  0.76891007  0.98735358    -0.10100
C366        C  0.01770408  0.77071125  0.02182961    -0.11700
C367        C  0.24441111  0.77315854  0.88500175    -0.10100
C368        C  0.19782458  0.77083648  0.88628350    -0.11700
C369        C  0.89401553  0.36737275  0.15815942    -0.10100
C370        C  0.90914006  0.40240398  0.18160488    -0.11700
C371        C  0.81111976  0.44395803  0.32955072    -0.10100
C372        C  0.84797114  0.45749041  0.30686594    -0.11700
C373        C  0.08038418  0.47044738  0.30468796    -0.10100
C374        C  0.03856818  0.47186360  0.28739966    -0.11700
C375        C  0.91557031  0.58365941  0.20741051    -0.10100
C376        C  0.91041246  0.62639274  0.19067935    -0.11700
C377        C  0.81189496  0.09981853  0.33591147    -0.10100
C378        C  0.84882704  0.08802886  0.31278451    -0.11700
C379        C  0.89398340  0.19059702  0.16524674    -0.10100
C380        C  0.90944863  0.15626244  0.18967152    -0.11700
C381        C  0.91065941  0.93134830  0.18880765    -0.10100
C382        C  0.91643660  0.97354583  0.20603257    -0.11700
C383        C  0.03946521  0.07837720  0.29216187    -0.10100
C384        C  0.08146802  0.07891576  0.30924203    -0.11700
C385        C  0.63522082  0.44017605  0.33663289    -0.10100
C386        C  0.60012596  0.45524172  0.31378853    -0.11700
C387        C  0.55291852  0.36001887  0.16935743    -0.10100
C388        C  0.53835035  0.39534898  0.19292729    -0.11700
C389        C  0.42016453  0.46528618  0.29877125    -0.10100
C390        C  0.37797722  0.46262985  0.31645278    -0.11700
C391        C  0.52686675  0.62766621  0.18987293    -0.10100
C392        C  0.52668624  0.58620253  0.20899666    -0.11700
loop_ 
_geom_bond_atom_site_label_1 
_geom_bond_atom_site_label_2 
_geom_bond_distance 
_geom_bond_site_symmetry_2 
_ccdc_geom_bond_type 
C1            C2   1.535       .  S
C1            C7   1.522       .  S
C1            C5   1.531       .  S
C1          C392   1.462       .  S
C2            H9   1.086       .  S
C2            C3   1.367       .  D
C3            C4   1.539       .  S
C3          C386   1.443       .  S
C4            C8   1.547       .  S
C4            C6   1.538       .  S
C4           H10   1.111       .  S
C5           H11   1.087       .  S
C5            C6   1.363       .  D
C6          C388   1.440       .  S
C7           H12   1.088       .  S
C7            C8   1.358       .  D
C8          C389   1.440       .  S
C13          C14   1.537       .  S
C13          C19   1.527       .  S
C13          C17   1.536       .  S
C13         C383   1.473   1_655  S
C14          H21   1.086   1_655  S
C14          C15   1.368       .  D
C15          C16   1.541       .  S
C15         C380   1.450       .  S
C16          C20   1.547       .  S
C16          C18   1.538       .  S
C16          H22   1.111       .  S
C17          H23   1.087       .  S
C17          C18   1.366       .  D
C18         C378   1.445       .  S
C19          H24   1.087   1_645  S
C19          C20   1.360       .  D
C20         C382   1.448   1_545  S
C25          C26   1.537       .  S
C25          C31   1.525       .  S
C25          C29   1.536       .  S
C25         C374   1.471   1_655  S
C26          H33   1.087       .  S
C26          C27   1.367       .  D
C27          C28   1.538       .  S
C27         C372   1.446       .  S
C28          C32   1.548       .  S
C28          C30   1.540       .  S
C28          H34   1.111       .  S
C29          H35   1.087   1_655  S
C29          C30   1.367       .  D
C30         C370   1.447       .  S
C31          H36   1.087   1_655  S
C31          C32   1.359       .  D
C32         C375   1.446       .  S
C37          C38   1.531       .  S
C37          C43   1.531       .  S
C37          C41   1.531       .  S
C37         C365   1.464       .  S
C38          H45   1.087       .  S
C38          C39   1.362       .  D
C39          C40   1.544       .  S
C39         C364   1.446       .  S
C40          C44   1.542       .  S
C40          C42   1.543       .  S
C40          H46   1.111       .  S
C41          H47   1.087       .  S
C41          C42   1.366       .  D
C42         C368   1.446       .  S
C43          H48   1.087       .  S
C43          C44   1.361       .  D
C44         C362   1.443       .  S
C49          C50   1.530       .  S
C49          C55   1.531       .  S
C49          C53   1.529       .  S
C49         C359   1.463       .  S
C50          H57   1.087       .  S
C50          C51   1.362       .  D
C51          C52   1.544       .  S
C51         C355   1.445       .  S
C52          C56   1.542       .  S
C52          C54   1.545       .  S
C52          H58   1.111       .  S
C53          H59   1.087       .  S
C53          C54   1.365       .  D
C54         C367   1.446       .  S
C55          H60   1.087       .  S
C55          C56   1.362       .  D
C56         C358   1.442       .  S
O61          C64   1.263       .  A
O61         Cd66   2.451       .  S
C62          O71   1.262       .  A
C62          O67   1.265       .  A
C62         C391   1.429       .  S
O63          C69   1.262       .  A
O63         Cd66   2.433       .  S
C64          O72   1.263       .  A
C64         C351   1.427       .  S
C65          O70   1.265       .  A
C65          O68   1.261       .  A
C65         C353   1.423       .  S
Cd66         O73   2.477       .  S
Cd66         O72   2.445       .  S
Cd66         O71   2.443       .  S
Cd66         O67   2.464       .  S
Cd66         O70   2.466       .  S
Cd66         O68   2.407       .  S
C69          O73   1.264       .  A
C69         C360   1.430       .  S
O74          C77   1.266       .  A
O74         Cd79   2.499       .  S
C75          O84   1.262       .  A
C75          O80   1.268       .  A
C75         C376   1.441       .  S
O76          C82   1.264       .  A
O76         Cd79   2.455       .  S
C77          O85   1.261       .  A
C77         C381   1.443       .  S
C78          O83   1.262       .  A
C78          O81   1.265       .  A
C78         C366   1.431   1_655  S
Cd79         O86   2.418       .  S
Cd79         O85   2.480       .  S
Cd79         O84   2.464       .  S
Cd79         O80   2.492       .  S
Cd79         O83   2.430       .  S
Cd79         O81   2.484       .  S
C82          O86   1.264       .  A
C82         C354   1.424       .  S
C87          C88   1.531       .  S
C87          C93   1.524       .  S
C87          C91   1.534       .  S
C87         C352   1.460   1_545  S
C88          H95   1.087       .  S
C88          C89   1.363       .  D
C89          C90   1.539       .  S
C89         C348   1.441       .  S
C90          C94   1.547       .  S
C90          C92   1.539       .  S
C90          H96   1.111       .  S
C91          H97   1.087   1_545  S
C91          C92   1.366       .  D
C92         C346   1.441       .  S
C93          H98   1.087   1_545  S
C93          C94   1.358       .  D
C94         C350   1.444       .  S
O99         C102   1.267       .  A
O99        Cd104   2.475       .  S
C100        O109   1.262       .  A
C100        O105   1.266       .  A
C100        C373   1.438       .  S
O101        C107   1.264       .  A
O101       Cd104   2.449       .  S
C102        O110   1.261       .  A
C102        C390   1.435       .  S
C103        O108   1.261       .  A
C103        O106   1.265       .  A
C103        C342   1.431       .  S
Cd104       O111   2.411       .  S
Cd104       O110   2.455       .  S
Cd104       O109   2.457       .  S
Cd104       O105   2.493       .  S
Cd104       O108   2.428       .  S
Cd104       O106   2.485       .  S
C107        O111   1.263       .  A
C107        C344   1.421       .  S
O112        C115   1.266       .  A
O112       Cd117   2.496       .  S
C113        O122   1.262       .  A
C113        O118   1.266       .  A
C113        C349   1.439       .  S
O114        C120   1.264       .  A
O114       Cd117   2.451       .  S
C115        O123   1.262       .  A
C115        C384   1.440       .  S
C116        O121   1.262       .  A
C116        O119   1.264   1_545  A
C116        C339   1.430   1_545  S
Cd117       O124   2.409       .  S
Cd117       O123   2.462       .  S
Cd117       O122   2.471       .  S
Cd117       O118   2.482       .  S
Cd117       O121   2.434       .  S
Cd117       O119   2.477   1_545  S
C120        O124   1.263       .  A
C120        C343   1.421       .  S
C125        C126   1.530       .  S
C125        C131   1.530       .  S
C125        C129   1.530       .  S
C125        C340   1.463       .  S
C126        H133   1.087       .  S
C126        C127   1.361       .  D
C127        C128   1.545       .  S
C127        C333   1.445       .  S
C128        C132   1.544       .  S
C128        C130   1.547       .  S
C128        H134   1.111       .  S
C129        H135   1.087       .  S
C129        C130   1.366       .  D
C130        C337   1.448       .  S
C131        H136   1.087       .  S
C131        C132   1.361       .  D
C132        C335   1.444       .  S
C137        C138   1.531       .  S
C137        C143   1.531       .  S
C137        C141   1.531       .  S
C137        C341   1.465       .  S
C138        H145   1.087       .  S
C138        C139   1.362       .  D
C139        C140   1.541       .  S
C139        C332   1.441       .  S
C140        C144   1.539       .  S
C140        C142   1.545       .  S
C140        H146   1.111       .  S
C141        H147   1.087       .  S
C141        C142   1.366       .  D
C142        C338   1.448       .  S
C143        H148   1.087       .  S
C143        C144   1.362       .  D
C144        C329   1.440       .  S
O149        C152   1.267       .  A
O149       Cd154   2.496       .  S
C150        O159   1.262       .  A
C150        O155   1.266       .  A
C150        C321   1.440       .  S
O151        C157   1.264       .  A
O151       Cd154   2.461       .  S
C152        O160   1.260       .  A
C152        C323   1.440       .  S
C153        O158   1.261   1_545  A
C153        O156   1.266       .  A
C153        C325   1.433       .  S
Cd154       O161   2.419       .  S
Cd154       O160   2.462       .  S
Cd154       O159   2.463       .  S
Cd154       O155   2.493       .  S
Cd154       O158   2.433       .  S
Cd154       O156   2.494   1_565  S
C157        O161   1.263       .  A
C157        C327   1.425       .  S
O162        C165   1.264       .  A
O162       Cd167   2.474       .  S
C163        O172   1.262       .  A
C163        O168   1.265       .  A
C163        C316   1.434       .  S
O164        C170   1.265       .  A
O164       Cd167   2.465       .  S
C165        O173   1.262       .  A
C165        C317   1.433       .  S
C166        O171   1.262       .  A
C166        O169   1.263       .  A
C166        C319   1.431       .  S
Cd167       O174   2.416       .  S
Cd167       O173   2.456       .  S
Cd167       O172   2.457       .  S
Cd167       O168   2.470       .  S
Cd167       O171   2.442       .  S
Cd167       O169   2.481       .  S
C170        O174   1.263       .  A
C170        C328   1.425       .  S
C175        C176   1.532       .  S
C175        C181   1.530       .  S
C175        C179   1.531       .  S
C175        C326   1.466       .  S
C176        H183   1.087       .  S
C176        C177   1.363       .  D
C177        C178   1.542       .  S
C177        C377   1.444       .  S
C178        C182   1.541       .  S
C178        C180   1.543       .  S
C178        H184   1.111       .  S
C179        H185   1.087       .  S
C179        C180   1.366       .  D
C180        C314   1.446       .  S
C181        H186   1.087       .  S
C181        C182   1.361       .  D
C182        C345   1.440       .  S
C187        C188   1.530       .  S
C187        C193   1.529       .  S
C187        C191   1.530       .  S
C187        C320   1.464       .  S
C188        H195   1.087       .  S
C188        C189   1.361       .  D
C189        C190   1.544       .  S
C189        C385   1.443       .  S
C190        C194   1.545       .  S
C190        C192   1.545       .  S
C190        H196   1.111       .  S
C191        H197   1.087       .  S
C191        C192   1.366       .  D
C192        C313   1.446       .  S
C193        H198   1.087       .  S
C193        C194   1.361       .  D
C194        C371   1.445       .  S
C199        C200   1.537       .  S
C199        C205   1.523       .  S
C199        C203   1.536   1_545  S
C199        C311   1.469       .  S
C200        H207   1.086       .  S
C200        C201   1.368   1_545  D
C201        C202   1.539       .  S
C201        C334   1.446       .  S
C202        C206   1.547       .  S
C202        C204   1.538       .  S
C202        H208   1.111       .  S
C203        H209   1.087       .  S
C203        C204   1.366       .  D
C204        C356   1.445       .  S
C205        H210   1.087       .  S
C205        C206   1.357   1_545  D
C206        C324   1.444       .  S
C211        C212   1.537   1_655  S
C211        C217   1.528   1_565  S
C211        C215   1.535       .  S
C211        C322   1.472       .  S
C212        H219   1.086       .  S
C212        C213   1.367       .  D
C213        C214   1.537       .  S
C213        C336   1.445       .  S
C214        C218   1.546   1_565  S
C214        C216   1.539       .  S
C214        H220   1.111       .  S
C215        H221   1.087       .  S
C215        C216   1.366   1_655  D
C216        C361   1.443       .  S
C217        H222   1.087       .  S
C217        C218   1.361   1_655  D
C218        C310   1.448       .  S
C223        C224   1.534       .  S
C223        C229   1.526       .  S
C223        C227   1.533   1_655  S
C223        C318   1.466       .  S
C224        H231   1.087       .  S
C224        C225   1.366   1_655  D
C225        C226   1.541       .  S
C225        C363   1.446       .  S
C226        C230   1.548       .  S
C226        C228   1.538       .  S
C226        H232   1.111       .  S
C227        H233   1.087       .  S
C227        C228   1.364       .  D
C228        C331   1.441       .  S
C229        H234   1.087       .  S
C229        C230   1.361   1_655  D
C230        C308   1.448       .  S
C235        C236   1.531       .  S
C235        C241   1.532       .  S
C235        C239   1.531       .  S
C235        C304   1.469       .  S
C236        H243   1.087       .  S
C236        C237   1.362       .  D
C237        C238   1.540       .  S
C237        C387   1.440       .  S
C238        C242   1.541       .  S
C238        C240   1.549       .  S
C238        H244   1.111       .  S
C239        H245   1.087       .  S
C239        C240   1.366       .  D
C240        C306   1.453       .  S
C241        H246   1.087       .  S
C241        C242   1.364       .  D
C242        C347   1.442       .  S
C247        C248   1.531       .  S
C247        C253   1.532       .  S
C247        C251   1.534       .  S
C247        C301   1.471       .  S
C248        H255   1.087       .  S
C248        C249   1.361       .  D
C249        C250   1.546       .  S
C249        C379   1.449       .  S
C250        C254   1.546       .  S
C250        C252   1.547       .  S
C250        H256   1.111       .  S
C251        H257   1.086       .  S
C251        C252   1.369       .  D
C252        C305   1.454       .  S
C253        H258   1.087       .  S
C253        C254   1.362       .  D
C254        C369   1.448       .  S
O259        C262   1.266       .  A
O259       Cd264   2.488       .  S
C260        O269   1.262       .  A
C260        O265   1.266       .  A
C260        C298   1.440       .  S
O261        C267   1.265       .  A
O261       Cd264   2.460       .  S
C262        O270   1.261       .  A
C262        C312   1.437       .  S
C263        O268   1.261       .  A
C263        O266   1.265       .  A
C263        C303   1.436       .  S
Cd264       O271   2.404       .  S
Cd264       O270   2.454       .  S
Cd264       O269   2.471       .  S
Cd264       O265   2.487       .  S
Cd264       O268   2.446       .  S
Cd264       O266   2.499       .  S
C267        O271   1.262       .  A
C267        C299   1.422       .  S
O272        C275   1.267       .  A
O272       Cd277   2.503       .  S
C273        O282   1.262       .  A
C273        O278   1.266       .  A
C273        C309   1.444       .  S
O274        C280   1.264       .  A
O274       Cd277   2.453       .  S
C275        O283   1.261       .  A
C275        C307   1.443       .  S
C276        O281   1.262   1_655  A
C276        O279   1.265       .  A
C276        C302   1.438       .  S
Cd277       O284   2.419       .  S
Cd277       O283   2.471       .  S
Cd277       O282   2.485       .  S
Cd277       O278   2.497       .  S
Cd277       O281   2.451       .  S
Cd277       O279   2.499   1_455  S
C280        O284   1.264       .  A
C280        C300   1.423       .  S
C285        C286   1.533       .  S
C285        C291   1.525       .  S
C285        C289   1.536       .  S
C285        C315   1.466       .  S
C286        H293   1.087       .  S
C286        C287   1.365       .  D
C287        C288   1.538       .  S
C287        C330   1.440       .  S
C288        C292   1.545       .  S
C288        C290   1.538       .  S
C288        H294   1.111       .  S
C289        H295   1.087       .  S
C289        C290   1.366       .  D
C290        C357   1.443       .  S
C291        H296   1.087       .  S
C291        C292   1.359       .  D
C292        C297   1.444       .  S
C297        C298   1.208       .  T
C299        C300   1.199       .  T
C301        C302   1.208   1_554  T
C303        C304   1.207   1_556  T
C305        C306   1.213       .  T
C307        C308   1.210       .  T
C309        C310   1.211       .  T
C311        C312   1.207       .  T
C313        C314   1.209       .  T
C315        C316   1.205       .  T
C317        C318   1.205       .  T
C319        C320   1.203       .  T
C321        C322   1.209       .  T
C323        C324   1.208       .  T
C325        C326   1.205       .  T
C327        C328   1.200       .  T
C329        C330   1.205       .  T
C331        C332   1.206       .  T
C333        C334   1.208       .  T
C335        C336   1.208       .  T
C337        C338   1.210       .  T
C339        C340   1.203       .  T
C341        C342   1.204       .  T
C343        C344   1.197       .  T
C345        C346   1.205       .  T
C347        C348   1.206       .  T
C349        C350   1.208       .  T
C351        C352   1.201       .  T
C353        C354   1.199       .  T
C355        C356   1.208       .  T
C357        C358   1.207       .  T
C359        C360   1.203   1_556  T
C361        C362   1.207       .  T
C363        C364   1.208       .  T
C365        C366   1.204   1_556  T
C367        C368   1.208       .  T
C369        C370   1.209       .  T
C371        C372   1.208       .  T
C373        C374   1.208       .  T
C375        C376   1.209       .  T
C377        C378   1.208       .  T
C379        C380   1.211       .  T
C381        C382   1.210       .  T
C383        C384   1.209       .  T
C385        C386   1.207       .  T
C387        C388   1.205       .  T
C389        C390   1.206       .  T
C391        C392   1.203       .  T
