geometry optimzed in LAMMPS
_audit_creation_date              2020-12-01 
_audit_creation_method            'lammps2cif' 
_symmetry_space_group_name_H-M    'P1' 
_symmetry_Int_Tables_number       1 
_symmetry_cell_setting            triclinic 
loop_ 
_symmetry_equiv_pos_as_xyz 
  x,y,z 
_cell_length_a                    64.20389109 
_cell_length_b                    63.969051193885704 
_cell_length_c                    33.231501494127045 
_cell_angle_alpha                 90.0308657760823 
_cell_angle_beta                  89.54793860388286 
_cell_angle_gamma                 89.49618119125655 
loop_ 
_atom_site_label 
_atom_site_type_symbol 
_atom_site_fract_x 
_atom_site_fract_y 
_atom_site_fract_z 
_atom_site_charge 
C1          C  0.23876123  0.33337648  0.91934706     0.79600
N2          N  0.24271371  0.34183333  0.88186384    -0.78700
C3          C  0.25170253  0.32969221  0.85206423     0.82000
N4          N  0.25595919  0.30926580  0.85995313    -0.78600
C5          C  0.25157674  0.30057691  0.89624041     0.82100
N6          N  0.24320152  0.31279741  0.92568843    -0.80400
C7          C  0.27281700  0.33617898  0.61194498     0.79600
N8          N  0.27214877  0.34460813  0.65023388    -0.78700
C9          C  0.26415676  0.33316614  0.68177633     0.82000
N10         N  0.25760362  0.31343191  0.67480333    -0.78600
C11         C  0.25846478  0.30481327  0.63756713     0.82100
N12         N  0.26610677  0.31625558  0.60646044    -0.80400
C13         C  0.23810256  0.17820376  0.92134278     0.79600
N14         N  0.23773986  0.17039370  0.88278510    -0.78700
C15         C  0.24377892  0.18261509  0.85107665     0.82000
N16         N  0.24957223  0.20257526  0.85802397    -0.78600
C17         C  0.24983389  0.21059466  0.89570854     0.82100
N18         N  0.24394034  0.19839071  0.92719757    -0.80400
C19         C  0.25989048  0.18088055  0.61325615     0.79600
N20         N  0.25608470  0.17338432  0.65129662    -0.78700
C21         C  0.24931027  0.18653857  0.68111298     0.82000
N22         N  0.24691867  0.20713693  0.67285604    -0.78600
C23         C  0.25098218  0.21502692  0.63582028     0.82100
N24         N  0.25736742  0.20177291  0.60595214    -0.80400
Zr25       Zr  0.30754224  0.95806073  0.22371532     2.17500
O26         O  0.31065107  0.92887656  0.27025885    -0.52000
O27         O  0.30469747  0.98689068  0.27283377    -0.75200
O28         O  0.34333579  0.95755903  0.24884384    -0.81900
O29         O  0.24706730  0.97497937  0.22116786    -0.83700
O30         O  0.36598021  0.96741027  0.19886079    -0.79300
O31         O  0.27048750  0.95528939  0.25486966    -0.90900
O32         O  0.32616837  0.00978841  0.24460480    -0.76900
O33         O  0.33272259  0.98116743  0.19289078    -0.86400
O34         O  0.28645067  0.98754532  0.20657741    -0.86100
O35         O  0.32511931  0.94306634  0.16333533    -0.72800
O36         O  0.28789109  0.94059267  0.17610628    -0.85000
Zr37       Zr  0.29849000  0.98303841  0.07881530     2.26400
Zr38       Zr  0.34818465  0.96848676  0.13086528     2.06300
Zr39       Zr  0.26500613  0.96663201  0.16499491     2.10000
Zr40       Zr  0.31280051  0.00999779  0.17826019     1.78800
O41         O  0.25237561  0.93177521  0.18107795    -0.93800
O42         O  0.34777910  0.02230694  0.19299664    -0.41600
O43         O  0.29870101  0.97899656  0.14837424    -0.78200
O44         O  0.32651139  0.99828241  0.11561623    -0.96900
O45         O  0.32263162  0.95493416  0.08538638    -0.90200
O46         O  0.27634077  0.95590890  0.10447528    -0.93100
C47         C  0.31325906  0.00497223  0.27179783     1.00700
C48         C  0.25164511  0.96326417  0.24982200     1.13600
C49         C  0.36172378  0.96271325  0.23638181     1.04400
O50         O  0.38410555  0.98028118  0.12593201    -0.95200
O51         O  0.35387907  0.98888478  0.06380474    -0.91000
O52         O  0.32744074  0.97318129  0.03689577    -0.84100
C53         C  0.34147974  0.98673337  0.03328637     1.11000
O54         O  0.31898986  0.89648519  0.13475985    -0.97200
Zr55       Zr  0.30109476  0.92853534  0.11461656     1.88900
O56         O  0.27518695  0.96374686  0.03502135    -0.73800
O57         O  0.36391080  0.93565776  0.10832720    -0.53100
O58         O  0.32434309  0.91421673  0.06311641    -0.97800
O59         O  0.27824482  0.89895251  0.12716143    -0.55000
O60         O  0.27857268  0.92944204  0.05323007    -0.74400
C61         C  0.27048590  0.94426595  0.03149051     0.98000
O62         O  0.29257069  0.01604037  0.04485867    -0.63200
O63         O  0.22920180  0.96889759  0.14174595    -0.58000
O64         O  0.28265109  0.01142884  0.11827970    -0.94700
O65         O  0.25752802  0.99003225  0.11467583    -0.93100
O66         O  0.29086358  0.03573513  0.21096909    -0.93400
O67         O  0.31368511  0.03911302  0.13156070    -0.92200
C68         C  0.26414336  0.00708348  0.12711467     1.16800
H69         H  0.27854152  0.99457903  0.22744653     0.32800
H70         H  0.33310647  0.00987636  0.10222107     0.43600
H71         H  0.26227447  0.95258258  0.09681370     0.37200
H72         H  0.33390344  0.93177040  0.17270737     0.33600
H73         H  0.35590815  0.01975176  0.16800757     0.25400
H74         H  0.37219655  0.93935600  0.08414407     0.31400
H75         H  0.31501976  0.90927986  0.04156843     0.37300
H76         H  0.30072404  0.04586285  0.22260766     0.31700
H77         H  0.22808851  0.95870214  0.11946559     0.30600
H78         H  0.24251396  0.92838953  0.15932774     0.32300
H79         H  0.28160901  0.88883365  0.10544164     0.31300
H80         H  0.32778888  0.04510433  0.13372622     0.35300
H81         H  0.27921351  0.02236299  0.05356466     0.28000
H82         H  0.29899062  0.91957389  0.26313804     0.32200
H83         H  0.31859910  0.89663606  0.16454631     0.35100
H84         H  0.22071270  0.96284277  0.16376329     0.27700
H85         H  0.30380184  0.02506339  0.05499337     0.40600
H86         H  0.39156710  0.96935201  0.11025473     0.30600
H87         H  0.34648995  0.03771525  0.19486896     0.38200
H88         H  0.26415667  0.90415326  0.12038448     0.30100
H89         H  0.37437015  0.93220631  0.12907990     0.30100
H90         H  0.30659959  0.93483512  0.29672026     0.30400
Zr91       Zr  0.20114052  0.94624365  0.97780852     2.17500
O92         O  0.17947667  0.93833913  0.03622293    -0.52000
O93         O  0.23452769  0.94798238  0.01493041    -0.75200
O94         O  0.20473300  0.91040501  0.99982425    -0.81900
O95         O  0.20679661  0.00666750  0.97255055    -0.83700
O96         O  0.21847736  0.89097269  0.94797137    -0.79300
O97         O  0.19208930  0.98212766  0.01134139    -0.90900
O98         O  0.25601612  0.93137550  0.97265596    -0.76900
O99         O  0.22670882  0.92627979  0.93946049    -0.86400
O100        O  0.22328464  0.97260714  0.95272899    -0.86100
O101        O  0.18554206  0.92586133  0.92261640    -0.72800
O102        O  0.17617540  0.96160285  0.93670276    -0.85000
Zr103      Zr  0.21104119  0.95892794  0.82521556     2.26400
Zr104      Zr  0.21257628  0.90880363  0.88146712     2.06300
Zr105      Zr  0.19471774  0.98961429  0.91795324     2.10000
Zr106      Zr  0.24828415  0.95184332  0.91490509     1.78800
O107        O  0.16085109  0.99372386  0.95112619    -0.93800
O108        O  0.27016502  0.92178364  0.89652028    -0.41600
O109        O  0.21289604  0.95921969  0.89501369    -0.78200
O110        O  0.23535056  0.93587760  0.85687920    -0.96900
O111        O  0.18960439  0.92995709  0.84107332    -0.90200
O112        O  0.18242384  0.97527195  0.85957988    -0.93100
C113        C  0.25250844  0.93994208  0.00613736     1.00700
C114        C  0.19695438  0.00173262  0.00363982     1.13600
C115        C  0.21377953  0.89388447  0.98582829     1.04400
O116        O  0.22920771  0.87467481  0.87363348    -0.95200
O117        O  0.23214655  0.90410759  0.81375003    -0.91000
O118        O  0.22724474  0.93422126  0.77817552    -0.84100
C119        C  0.23513978  0.91573008  0.78166440     1.11000
O120        O  0.13546897  0.92547908  0.91525690    -0.97200
Zr121      Zr  0.16198721  0.94572026  0.88002476     1.88900
O122        O  0.18035362  0.95792756  0.78350025    -0.73800
O123        O  0.18257030  0.88730363  0.86613142    -0.53100
O124        O  0.15159403  0.91687410  0.83698673    -0.97800
O125        O  0.12870732  0.96324777  0.89366046    -0.55000
O126        O  0.15277889  0.96716828  0.82082231    -0.74400
C127        C  0.16420100  0.96929581  0.78920416     0.98000
O128        O  0.21543491  0.99004606  0.78574620    -0.63200
O129        O  0.17964241  0.02389537  0.90243952    -0.58000
O130        O  0.23516163  0.98210290  0.86063140    -0.94700
O131        O  0.21332130  0.00769334  0.86979234    -0.93100
O132        O  0.27771948  0.96871871  0.94662298    -0.93400
O133        O  0.27058842  0.96959528  0.86709725    -0.92200
C134        C  0.23080070  0.99976214  0.87632146     1.16800
H135        H  0.23022180  0.97991397  0.97396722     0.32800
H136        H  0.24778644  0.93269790  0.84165563     0.43600
H137        H  0.17691563  0.98781728  0.84731382     0.37200
H138        H  0.17754507  0.91487258  0.93507705     0.33600
H139        H  0.28176244  0.92164429  0.91597780     0.25400
H140        H  0.18566193  0.88139515  0.83917879     0.31400
H141        H  0.14465846  0.92362894  0.81382238     0.37300
H142        H  0.28618590  0.95732689  0.95845223     0.31700
H143        H  0.17714683  0.02413211  0.87307782     0.30600
H144        H  0.15123044  0.99849533  0.92983490     0.32300
H145        H  0.13037090  0.97767479  0.88343394     0.31300
H146        H  0.26625955  0.96387276  0.84097536     0.35300
H147        H  0.20486877  0.99977787  0.79691718     0.28000
H148        H  0.16642042  0.94633824  0.03182954     0.32200
H149        H  0.14140098  0.91119824  0.91765777     0.35100
H150        H  0.19079729  0.03420496  0.90704580     0.27700
H151        H  0.22856882  0.99606744  0.79490582     0.40600
H152        H  0.24389171  0.87689186  0.88133681     0.30600
H153        H  0.26184335  0.90933951  0.90356409     0.38200
H154        H  0.12790457  0.96490000  0.92325334     0.30100
H155        H  0.18368250  0.87525986  0.88471015     0.30100
H156        H  0.18630102  0.94554646  0.05889777     0.30400
Zr157      Zr  0.17603258  0.03561816  0.72574940     2.17500
O158        O  0.17031830  0.06023356  0.78086304    -0.52000
O159        O  0.17066804  0.00451739  0.76893645    -0.75200
O160        O  0.13920309  0.03951239  0.74107863    -0.81900
O161        O  0.23771523  0.01936588  0.72325889    -0.83700
O162        O  0.12029325  0.02753684  0.68777927    -0.79300
O163        O  0.21363951  0.03793169  0.75784057    -0.90900
O164        O  0.15376618  0.98317123  0.72780533    -0.76900
O165        O  0.15367711  0.01375891  0.68589100    -0.86400
O166        O  0.19783765  0.00843103  0.70300827    -0.86100
O167        O  0.15978311  0.05371825  0.66781110    -0.72800
O168        O  0.19623674  0.05578043  0.68423527    -0.85000
Zr169      Zr  0.19601399  0.02029122  0.57770074     2.26400
Zr170      Zr  0.14171866  0.02930298  0.62408132     2.06300
Zr171      Zr  0.22138728  0.03228552  0.66959340     2.10000
Zr172      Zr  0.17410114  0.98574021  0.66752931     1.78800
O173        O  0.22031274  0.06707989  0.70038107    -0.93800
O174        O  0.13834482  0.98131400  0.64389944    -0.41600
O175        O  0.20343740  0.00341541  0.63839533    -0.78200
O176        O  0.16648593  0.00236812  0.60687536    -0.96900
O177        O  0.16907435  0.04632100  0.58710203    -0.90200
O178        O  0.21099238  0.04846980  0.61288541    -0.93100
C179        C  0.16148873  0.98708797  0.76168798     1.00700
C180        C  0.23302728  0.03082673  0.75206153     1.13600
C181        C  0.12212282  0.03313308  0.72533772     1.04400
O182        O  0.10659406  0.01776631  0.60859857    -0.95200
O183        O  0.13677573  0.01037899  0.55634773    -0.91000
O184        O  0.16965168  0.00767907  0.53126241    -0.84100
C185        C  0.15001204  0.00437911  0.52839331     1.11000
O186        O  0.16848099  0.10178432  0.66510109    -0.97200
Zr187      Zr  0.18424260  0.07294645  0.62750847     1.88900
O188        O  0.21433380  0.04838070  0.54098902    -0.73800
O189        O  0.12602582  0.06236508  0.60362650    -0.53100
O190        O  0.15859788  0.09065366  0.58567333    -0.97800
O191        O  0.20800309  0.10128455  0.64345698    -0.55000
O192        O  0.20647394  0.08024527  0.56856562    -0.74400
C193        C  0.21667860  0.06842815  0.54383020     0.98000
O194        O  0.21739228  0.00135214  0.53092318    -0.63200
O195        O  0.25811439  0.04289642  0.67147816    -0.58000
O196        O  0.22294543  0.99973724  0.61619718    -0.94700
O197        O  0.24591819  0.02433805  0.61779379    -0.93100
O198        O  0.17961268  0.95248807  0.70231224    -0.93400
O199        O  0.17788307  0.95315929  0.62988793    -0.92200
C200        C  0.24122010  0.00592291  0.62615558     1.16800
H201        H  0.20440379  0.00060207  0.72385642     0.32800
H202        H  0.16210723  0.99049869  0.59142116     0.43600
H203        H  0.22443023  0.05437786  0.60689153     0.37200
H204        H  0.14964527  0.06359126  0.67829779     0.33600
H205        H  0.13681663  0.96615969  0.63894611     0.25400
H206        H  0.11320033  0.05846310  0.58921030     0.31400
H207        H  0.16057566  0.08463891  0.55844218     0.37300
H208        H  0.16576719  0.94578120  0.70354964     0.31700
H209        H  0.25920871  0.05523027  0.65356610     0.30600
H210        H  0.23322820  0.07423178  0.69184212     0.32300
H211        H  0.20458000  0.11247801  0.62394111     0.31300
H212        H  0.16733283  0.95372166  0.60836652     0.35300
H213        H  0.22883187  0.99520977  0.54649869     0.28000
H214        H  0.18429335  0.06267845  0.79219347     0.32200
H215        H  0.17179378  0.09874671  0.69357204     0.35100
H216        H  0.26077758  0.04870174  0.69850284     0.27700
H217        H  0.20828283  0.98964695  0.52437460     0.40600
H218        H  0.10442867  0.00500413  0.62485803     0.30600
H219        H  0.12912478  0.98403426  0.66736903     0.38200
H220        H  0.22195547  0.09619826  0.63486818     0.30100
H221        H  0.12095221  0.06881946  0.62899386     0.30100
H222        H  0.16295417  0.05210450  0.80187757     0.30400
Zr223      Zr  0.28259319  0.06806988  0.48150422     2.17500
O224        O  0.30944566  0.07038646  0.53273649    -0.52000
O225        O  0.25276033  0.07021606  0.52856782    -0.75200
O226        O  0.28856735  0.10429797  0.49714772    -0.81900
O227        O  0.29876374  0.01142090  0.46841949    -0.83700
O228        O  0.27264534  0.12275170  0.44729595    -0.79300
O229        O  0.28663834  0.03273114  0.51568088    -0.90900
O230        O  0.23070906  0.08846792  0.49109769    -0.76900
O231        O  0.25945639  0.09071788  0.44383401    -0.86400
O232        O  0.25295157  0.04764361  0.46501757    -0.86100
O233        O  0.29986060  0.08161863  0.42089725    -0.72800
O234        O  0.29940074  0.04203313  0.44142044    -0.85000
Zr235      Zr  0.26104927  0.04913531  0.33361134     2.26400
Zr236      Zr  0.27512075  0.10221054  0.38189231     2.06300
Zr237      Zr  0.27017487  0.02034172  0.42850061     2.10000
Zr238      Zr  0.23040866  0.07089351  0.42793309     1.78800
O239        O  0.27859256  0.98315181  0.42584891    -0.93800
O240        O  0.21959587  0.10664358  0.41169741    -0.41600
O241        O  0.24801662  0.04367472  0.39675187    -0.78200
O242        O  0.24671656  0.07955041  0.36695806    -0.96900
O243        O  0.28874139  0.07342929  0.34304146    -0.90200
O244        O  0.28716620  0.03023717  0.37008131    -0.93100
C245        C  0.23434507  0.07734984  0.52161596     1.00700
C246        C  0.29267718  0.01413084  0.50388717     1.13600
C247        C  0.27966428  0.12095148  0.48400717     1.04400
O248        O  0.26700644  0.13860287  0.36646363    -0.95200
O249        O  0.25558504  0.10648067  0.31440328    -0.91000
O250        O  0.26253833  0.07607640  0.28209893    -0.84100
C251        C  0.25343461  0.09397919  0.28340700     1.11000
O252        O  0.34682625  0.06877183  0.40411702    -0.97200
Zr253      Zr  0.31441492  0.05430234  0.37918214     1.88900
O254        O  0.28554008  0.02544431  0.29757037    -0.73800
O255        O  0.30884495  0.11632048  0.36245809    -0.53100
O256        O  0.33019063  0.07698191  0.32880179    -0.97800
O257        O  0.33966232  0.02730334  0.39731119    -0.55000
O258        O  0.31843070  0.03125018  0.32048830    -0.74400
C259        C  0.30539546  0.02178161  0.29773928     0.98000
O260        O  0.23095853  0.05090683  0.29115012    -0.63200
O261        O  0.24713888  0.00356784  0.47672334    -0.58000
O262        O  0.23527245  0.02218862  0.34962104    -0.94700
O263        O  0.26071536  0.00274469  0.36925497    -0.93100
O264        O  0.19958830  0.05892717  0.46346925    -0.93400
O265        O  0.20041776  0.07296656  0.38351193    -0.92200
C266        C  0.24160270  0.00607424  0.36807523     1.16800
H267        H  0.24545483  0.04192404  0.48763139     0.32800
H268        H  0.23541266  0.08549566  0.35175419     0.43600
H269        H  0.29295214  0.01670974  0.36349864     0.37200
H270        H  0.31097226  0.09069777  0.42923396     0.33600
H271        H  0.21093234  0.11130138  0.43484697     0.25400
H272        H  0.30823489  0.11753535  0.33279517     0.31400
H273        H  0.32845988  0.06966353  0.30279566     0.37300
H274        H  0.19174918  0.07182840  0.47061177     0.31700
H275        H  0.25213706  0.98898977  0.47980171     0.30600
H276        H  0.29254296  0.98229276  0.41299577     0.32300
H277        H  0.33243490  0.01397074  0.39204561     0.31300
H278        H  0.18950660  0.08097589  0.39824422     0.35300
H279        H  0.22463145  0.03702400  0.29076152     0.28000
H280        H  0.30273094  0.07776956  0.55565657     0.32200
H281        H  0.34442013  0.07080967  0.43332690     0.35100
H282        H  0.25081828  0.01009988  0.50249788     0.27700
H283        H  0.22135968  0.05991544  0.30691763     0.40600
H284        H  0.25206019  0.14036052  0.37328818     0.30600
H285        H  0.23228467  0.11524422  0.41319565     0.38200
H286        H  0.34056256  0.02799605  0.42700941     0.30100
H287        H  0.30856984  0.13094464  0.37225767     0.30100
H288        H  0.31980386  0.08032928  0.52190871     0.30400
Zr289      Zr  0.30820515  0.03848624  0.80510136     2.17500
O290        O  0.31230255  0.06436392  0.75197438    -0.52000
O291        O  0.31334037  0.00867962  0.75996482    -0.75200
O292        O  0.34482092  0.03875703  0.78643770    -0.81900
O293        O  0.24405265  0.02914302  0.81512869    -0.83700
O294        O  0.36344758  0.02410620  0.83786614    -0.79300
O295        O  0.27017933  0.03737496  0.77215812    -0.90900
O296        O  0.33124715  0.98790987  0.80041623    -0.76900
O297        O  0.33004357  0.01456064  0.84233565    -0.86400
O298        O  0.28569615  0.01192004  0.82653268    -0.86100
O299        O  0.32659591  0.05413971  0.86343807    -0.72800
O300        O  0.29108763  0.06046618  0.84930708    -0.85000
Zr301      Zr  0.29031553  0.02058208  0.95328910     2.26400
Zr302      Zr  0.34426557  0.02769294  0.90393696     2.06300
Zr303      Zr  0.26549969  0.03801555  0.86311028     2.10000
Zr304      Zr  0.30930128  0.98701292  0.85894926     1.78800
O305        O  0.26924402  0.07100389  0.82654826    -0.93800
O306        O  0.34425203  0.97601202  0.87987839    -0.41600
O307        O  0.28179591  0.00706615  0.89042551    -0.78200
O308        O  0.31882038  0.00164357  0.92072878    -0.96900
O309        O  0.31832056  0.04514303  0.94461217    -0.90200
O310        O  0.27698127  0.05096227  0.92159704    -0.93100
C311        C  0.32254533  0.99118867  0.76720374     1.00700
C312        C  0.25018681  0.03336499  0.78087497     1.13600
C313        C  0.36141017  0.03004789  0.80052386     1.04400
O314        O  0.37964029  0.01412468  0.91098814    -0.95200
O315        O  0.35025384  0.00865328  0.97158094    -0.91000
O316        O  0.31735358  0.00505916  0.99540416    -0.84100
C317        C  0.33705003  0.00210075  0.99894745     1.11000
O318        O  0.32503718  0.10325504  0.88300629    -0.97200
Zr319      Zr  0.30449315  0.07414177  0.90819490     1.88900
O320        O  0.27485938  0.04926543  0.99391253    -0.73800
O321        O  0.36169502  0.05990698  0.92258510    -0.53100
O322        O  0.33020965  0.08722716  0.95522066    -0.97800
O323        O  0.28213135  0.10367428  0.89040386    -0.55000
O324        O  0.28234373  0.08132277  0.96743317    -0.74400
C325        C  0.27271841  0.06938675  0.99248190     0.98000
O326        O  0.26454955  0.00563522  0.99805847    -0.63200
O327        O  0.23054370  0.05339063  0.87133077    -0.58000
O328        O  0.26153960  0.00174897  0.91761615    -0.94700
O329        O  0.24116490  0.02880849  0.91328651    -0.93100
O330        O  0.30013448  0.95595910  0.82021073    -0.93400
O331        O  0.30518724  0.95348069  0.89300646    -0.92200
C332        C  0.24393245  0.00971148  0.90714800     1.16800
H333        H  0.27836515  0.00500027  0.80517910     0.32800
H334        H  0.32367996  0.98940861  0.93476600     0.43600
H335        H  0.26376090  0.05719781  0.92884008     0.37200
H336        H  0.33707714  0.06343977  0.85288030     0.33600
H337        H  0.34593664  0.96162468  0.86925938     0.25400
H338        H  0.36786361  0.05698222  0.94922801     0.31400
H339        H  0.32199462  0.09477919  0.97606373     0.37300
H340        H  0.31336218  0.94807970  0.81649839     0.31700
H341        H  0.23244372  0.06577514  0.88879945     0.30600
H342        H  0.25581737  0.07369066  0.81292359     0.32300
H343        H  0.28538824  0.11464097  0.91038955     0.31300
H344        H  0.31602871  0.95298797  0.91400952     0.35300
H345        H  0.25168236  0.01347215  0.99131351     0.28000
H346        H  0.29791350  0.06783596  0.74365007     0.32200
H347        H  0.32457627  0.10190870  0.85335194     0.35100
H348        H  0.22641290  0.05947895  0.84516747     0.27700
H349        H  0.26163315  0.99120530  0.99025477     0.40600
H350        H  0.38699897  0.02455845  0.92752197     0.30600
H351        H  0.35428152  0.98431906  0.86392414     0.38200
H352        H  0.26786941  0.09916274  0.89765642     0.30100
H353        H  0.37376348  0.06078560  0.90393783     0.30100
H354        H  0.31824405  0.05639425  0.72897388     0.30400
Zr355      Zr  0.20619020  0.07212483  0.05636405     2.17500
O356        O  0.18138559  0.07686809  0.00180863    -0.52000
O357        O  0.23710061  0.07221821  0.01130714    -0.75200
O358        O  0.20032396  0.10888014  0.04413192    -0.81900
O359        O  0.18505264  0.01692192  0.06427986    -0.83700
O360        O  0.21968826  0.12560271  0.09068704    -0.79300
O361        O  0.19991594  0.03814631  0.02004667    -0.90900
O362        O  0.26087969  0.08830724  0.04823591    -0.76900
O363        O  0.23064119  0.09335940  0.09310116    -0.86400
O364        O  0.23376588  0.04781726  0.07159466    -0.86100
O365        O  0.19032157  0.08621445  0.11830129    -0.72800
O366        O  0.18618506  0.04770789  0.09477244    -0.85000
Zr367      Zr  0.22534647  0.05192712  0.20415649     2.26400
Zr368      Zr  0.21648938  0.10545733  0.15626095     2.06300
Zr369      Zr  0.21293750  0.02284922  0.10711165     2.10000
Zr370      Zr  0.25659270  0.07018465  0.10971117     1.78800
O371        O  0.19464783  0.99056371  0.12293668    -0.93800
O372        O  0.26836163  0.10624485  0.11612824    -0.41600
O373        O  0.22490096  0.05480794  0.13384656    -0.78200
O374        O  0.24363772  0.08029486  0.17300332    -0.96900
O375        O  0.19950215  0.07841363  0.19580895    -0.90200
O376        O  0.19915063  0.03320173  0.16817750    -0.93100
C377        C  0.25590932  0.07831303  0.01719344     1.00700
C378        C  0.19229884  0.02000645  0.02975385     1.13600
C379        C  0.21148132  0.12435533  0.05491327     1.04400
O380        O  0.22833052  0.14112336  0.16645697    -0.95200
O381        O  0.23776171  0.10953031  0.22078557    -0.91000
O382        O  0.22349695  0.08207517  0.24970674    -0.84100
C383        C  0.23687955  0.09663348  0.25091267     1.11000
O384        O  0.14099404  0.07559056  0.13532502    -0.97200
Zr385      Zr  0.17334346  0.05985266  0.15930240     1.88900
O386        O  0.20071313  0.02933058  0.24059953    -0.73800
O387        O  0.18477323  0.12312485  0.17872714    -0.53100
O388        O  0.15848465  0.08317240  0.21014383    -0.97800
O389        O  0.14558683  0.03689348  0.13696188    -0.55000
O390        O  0.16824971  0.03521512  0.21594341    -0.74400
C391        C  0.18105397  0.02553512  0.23936326     0.98000
O392        O  0.25124805  0.02923189  0.23616786    -0.63200
O393        O  0.23125341  0.00267684  0.05583618    -0.58000
O394        O  0.25537670  0.03509810  0.17277697    -0.94700
O395        O  0.23303467  0.01091937  0.16107451    -0.93100
O396        O  0.28738467  0.05513460  0.07999411    -0.93400
O397        O  0.28420436  0.06353452  0.15702537    -0.92200
C398        C  0.25108638  0.01788724  0.15631133     1.16800
H399        H  0.24055671  0.04144692  0.04862973     0.32800
H400        H  0.25572976  0.08433819  0.18805859     0.43600
H401        H  0.19465721  0.01940931  0.17553575     0.37200
H402        H  0.17980848  0.09623464  0.11032762     0.33600
H403        H  0.26794331  0.10968263  0.14514534     0.25400
H404        H  0.18817843  0.12858257  0.20574831     0.31400
H405        H  0.16369329  0.07777783  0.23615962     0.37300
H406        H  0.29625895  0.06721957  0.07307669     0.31700
H407        H  0.23044930  0.98781895  0.06388513     0.30600
H408        H  0.18017476  0.99480682  0.12980400     0.32300
H409        H  0.14977470  0.02280921  0.14642179     0.31300
H410        H  0.29320422  0.07600297  0.15566431     0.35300
H411        H  0.24418535  0.01807140  0.25158963     0.28000
H412        H  0.18970456  0.08216467  0.97884987     0.32200
H413        H  0.14471376  0.08976390  0.12595199     0.35100
H414        H  0.24586192  0.00674884  0.05818918     0.27700
H415        H  0.25898834  0.03789414  0.25528432     0.40600
H416        H  0.24365057  0.14033591  0.16291506     0.30600
H417        H  0.28340260  0.10569441  0.10936610     0.38200
H418        H  0.14711717  0.03611217  0.10731572     0.30100
H419        H  0.18380425  0.13570745  0.16147488     0.30100
H420        H  0.17204830  0.08856839  0.00982153     0.30400
Zr421      Zr  0.17875939  0.95820626  0.30516210     2.17500
O422        O  0.17534128  0.93017051  0.25624131    -0.52000
O423        O  0.18164838  0.98963477  0.26077219    -0.75200
O424        O  0.14359450  0.95913700  0.27888633    -0.81900
O425        O  0.24094416  0.96711616  0.31350701    -0.83700
O426        O  0.12177742  0.97079190  0.32906573    -0.79300
O427        O  0.21557147  0.95669987  0.27137495    -0.90900
O428        O  0.16222861  0.01290820  0.29384229    -0.76900
O429        O  0.15508142  0.98296383  0.33686314    -0.86400
O430        O  0.20208198  0.98431433  0.32576983    -0.86100
O431        O  0.16031170  0.94339737  0.36495749    -0.72800
O432        O  0.19520980  0.93664746  0.35230100    -0.85000
Zr433      Zr  0.18952544  0.97960244  0.45253703     2.26400
Zr434      Zr  0.13863573  0.97023751  0.39766421     2.06300
Zr435      Zr  0.22038533  0.95927634  0.36581450     2.10000
Zr436      Zr  0.17775512  0.00811727  0.35740637     1.78800
O437        O  0.22508285  0.92373063  0.34047634    -0.93800
O438        O  0.14460766  0.02683270  0.36482278    -0.41600
O439        O  0.19199286  0.97868518  0.38621468    -0.78200
O440        O  0.16226129  0.99731418  0.41723532    -0.96900
O441        O  0.16294544  0.95418135  0.44351650    -0.90200
O442        O  0.20858871  0.95000640  0.42671914    -0.93100
C443        C  0.17363815  0.00814656  0.26436651     1.00700
C444        C  0.23510341  0.96139675  0.27971312     1.13600
C445        C  0.12568870  0.96574788  0.29161647     1.04400
O446        O  0.10437889  0.98688267  0.40061909    -0.95200
O447        O  0.13362826  0.99089929  0.46426394    -0.91000
O448        O  0.15913437  0.97393741  0.49367184    -0.84100
C449        C  0.14566189  0.98849306  0.49529153     1.11000
O450        O  0.16438788  0.89344190  0.39711003    -0.97200
Zr451      Zr  0.18212933  0.92564750  0.41476792     1.88900
O452        O  0.21095109  0.95766981  0.49569781    -0.73800
O453        O  0.11711801  0.94063589  0.41664716    -0.53100
O454        O  0.15592325  0.91312666  0.46212801    -0.97800
O455        O  0.20616386  0.89661561  0.40191527    -0.55000
O456        O  0.20426790  0.92398364  0.47776254    -0.74400
C457        C  0.21380285  0.93786564  0.49952485     0.98000
O458        O  0.19544735  0.01491058  0.47838050    -0.63200
O459        O  0.25532530  0.95122828  0.39063327    -0.58000
O460        O  0.21099248  0.00167930  0.40885747    -0.94700
O461        O  0.23624707  0.97945964  0.41394824    -0.93100
O462        O  0.19709627  0.03782016  0.33631694    -0.93400
O463        O  0.18948323  0.03553968  0.40089614    -0.92200
C464        C  0.22943585  0.99627037  0.39993268     1.16800
H465        H  0.21043689  0.99132304  0.30570049     0.32800
H466        H  0.15705109  0.00988498  0.43001487     0.43600
H467        H  0.22233033  0.94515644  0.43397194     0.37200
H468        H  0.15089569  0.93301716  0.35465427     0.33600
H469        H  0.14637371  0.03983329  0.34901785     0.25400
H470        H  0.10788929  0.93860918  0.39324753     0.31400
H471        H  0.16062255  0.91801974  0.48880341     0.37300
H472        H  0.18699528  0.04623290  0.32064774     0.31700
H473        H  0.25445724  0.93722665  0.40319819     0.30600
H474        H  0.24012315  0.92051996  0.34306975     0.32300
H475        H  0.20269273  0.88600151  0.42252526     0.31300
H476        H  0.17637252  0.04280411  0.40872423     0.35300
H477        H  0.20828631  0.02101952  0.46696817     0.28000
H478        H  0.18592522  0.91967877  0.26441762     0.32200
H479        H  0.16390657  0.89352162  0.36735105     0.35100
H480        H  0.26418495  0.94905021  0.36645474     0.27700
H481        H  0.18372936  0.02364099  0.46895205     0.40600
H482        H  0.09801006  0.98185872  0.42602428     0.30600
H483        H  0.13421431  0.01865776  0.34977027     0.38200
H484        H  0.21991837  0.90191520  0.41027540     0.30100
H485        H  0.12665116  0.92841577  0.41585115     0.30100
H486        H  0.18086431  0.93608682  0.23083234     0.30400
Zr487      Zr  0.28320648  0.93997437  0.55577342     2.17500
O488        O  0.30483390  0.93393182  0.49608709    -0.52000
O489        O  0.24968120  0.93982086  0.51766357    -0.75200
O490        O  0.28353741  0.90361673  0.53633511    -0.81900
O491        O  0.27555744  0.00014788  0.55765820    -0.83700
O492        O  0.26731177  0.88508875  0.58616584    -0.79300
O493        O  0.29269325  0.97581683  0.52200049    -0.90900
O494        O  0.22716160  0.92437572  0.55928153    -0.76900
O495        O  0.25745410  0.92033203  0.59343337    -0.86400
O496        O  0.25958434  0.96593251  0.57809648    -0.86100
O497        O  0.29869613  0.92081757  0.61338722    -0.72800
O498        O  0.30724373  0.95604761  0.59766811    -0.85000
Zr499      Zr  0.27011609  0.95420392  0.70730829     2.26400
Zr500      Zr  0.27138019  0.90340402  0.65255442     2.06300
Zr501      Zr  0.28691804  0.98363651  0.61339804     2.10000
Zr502      Zr  0.23439766  0.94587101  0.61589228     1.78800
O503        O  0.32255968  0.98692785  0.58827111    -0.93800
O504        O  0.21067090  0.91724387  0.63160871    -0.41600
O505        O  0.26879824  0.95389703  0.63746996    -0.78200
O506        O  0.24721605  0.93046134  0.67485337    -0.96900
O507        O  0.29273219  0.92547716  0.69423684    -0.90200
O508        O  0.29858174  0.97088020  0.67329783    -0.93100
C509        C  0.23143496  0.93221743  0.52548258     1.00700
C510        C  0.28700652  0.99544332  0.52850949     1.13600
C511        C  0.27363959  0.88754090  0.54915629     1.04400
O512        O  0.25439592  0.86967618  0.65889533    -0.95200
O513        O  0.25057294  0.90033529  0.71873795    -0.91000
O514        O  0.26728501  0.92478674  0.75309535    -0.84100
C515        C  0.25248041  0.91170184  0.75106304     1.11000
O516        O  0.34816121  0.91918242  0.63120159    -0.97200
Zr517      Zr  0.32044102  0.94184747  0.65730775     1.88900
O518        O  0.29616851  0.97083137  0.74625103    -0.73800
O519        O  0.30075088  0.88124387  0.67154102    -0.53100
O520        O  0.33482606  0.91582335  0.70309390    -0.97800
O521        O  0.35073230  0.96250977  0.63818281    -0.55000
O522        O  0.32784198  0.96401185  0.71777810    -0.74400
C523        C  0.31583448  0.97328122  0.74391862     0.98000
O524        O  0.24944097  0.97212141  0.75666176    -0.63200
O525        O  0.29396777  0.02027106  0.62798531    -0.58000
O526        O  0.24627385  0.97910496  0.67621296    -0.94700
O527        O  0.27089092  0.00113865  0.66584998    -0.93100
O528        O  0.20903614  0.96711289  0.58113825    -0.93400
O529        O  0.21243898  0.96395990  0.66469662    -0.92200
C530        C  0.25273511  0.99546294  0.65896277     1.16800
H531        H  0.25312529  0.97263871  0.55544667     0.32800
H532        H  0.23485139  0.92743747  0.69032080     0.43600
H533        H  0.30448065  0.98406079  0.68131520     0.37200
H534        H  0.30758963  0.90996493  0.60226980     0.33600
H535        H  0.20376310  0.92115645  0.65728700     0.25400
H536        H  0.30019399  0.88084383  0.70131374     0.31400
H537        H  0.33011433  0.92027578  0.73024467     0.37300
H538        H  0.19934753  0.95706345  0.56889689     0.31700
H539        H  0.30793993  0.02024159  0.64038053     0.30600
H540        H  0.32328006  0.00087846  0.57550996     0.32300
H541        H  0.36240871  0.95652442  0.65383897     0.31300
H542        H  0.21626395  0.95807012  0.69120615     0.35300
H543        H  0.25204072  0.96420463  0.78157677     0.28000
H544        H  0.29571632  0.92686131  0.47650203     0.32200
H545        H  0.35183177  0.92497131  0.60448280     0.35100
H546        H  0.29604013  0.02706411  0.60151658     0.27700
H547        H  0.25716366  0.98528960  0.76029610     0.40600
H548        H  0.23936015  0.87291695  0.65615120     0.30600
H549        H  0.19937746  0.91820071  0.61156030     0.38200
H550        H  0.34821733  0.97640726  0.65053220     0.30100
H551        H  0.29680556  0.86698141  0.66308617     0.30100
H552        H  0.31521088  0.92319130  0.50404435     0.30400
Zr553      Zr  0.29625366  0.57290625  0.54916876     2.17500
O554        O  0.32046822  0.58330618  0.49629038    -0.52000
O555        O  0.26725534  0.57137846  0.50031399    -0.75200
O556        O  0.30790030  0.53668364  0.51493465    -0.81900
O557        O  0.28427479  0.62777269  0.59201114    -0.83700
O558        O  0.31384307  0.51216417  0.56148722    -0.79300
O559        O  0.30338616  0.61024042  0.54408801    -0.90900
O560        O  0.24108860  0.58885362  0.53023700    -0.76900
O561        O  0.26662077  0.55203309  0.55654567    -0.86400
O562        O  0.26973611  0.59268877  0.58714230    -0.86100
O563        O  0.31330413  0.54784872  0.58947079    -0.72800
O564        O  0.30778476  0.58599309  0.61529308    -0.85000
Zr565      Zr  0.26611944  0.54906077  0.69095365     2.26400
Zr566      Zr  0.28392435  0.52484121  0.59189421     2.06300
Zr567      Zr  0.28034968  0.60394157  0.65369911     2.10000
Zr568      Zr  0.24087243  0.57223466  0.59439064     1.78800
O569        O  0.31049599  0.61728304  0.68917160    -0.93800
O570        O  0.20655040  0.57026850  0.56342752    -0.41600
O571        O  0.25213095  0.58025846  0.65999391    -0.78200
O572        O  0.25480261  0.54228378  0.62423947    -0.96900
O573        O  0.29485164  0.53487447  0.65565934    -0.90200
O574        O  0.29362506  0.57460847  0.69051653    -0.93100
C575        C  0.24849438  0.57875321  0.50089472     1.00700
C576        C  0.29231674  0.62605070  0.55563567     1.13600
C577        C  0.31343285  0.51725660  0.52533070     1.04400
O578        O  0.26085280  0.52909657  0.53507093    -0.95200
O579        O  0.27858900  0.50465984  0.64863635    -0.91000
O580        O  0.25021262  0.51495087  0.67787054    -0.84100
C581        C  0.25933603  0.50331123  0.65196600     1.11000
O582        O  0.35178282  0.57650749  0.62519693    -0.97200
Zr583      Zr  0.32222163  0.55879641  0.65603982     1.88900
O584        O  0.28833629  0.52368001  0.72479227    -0.73800
O585        O  0.28149235  0.48770534  0.57434282    -0.53100
O586        O  0.35381075  0.53747933  0.65234620    -0.97800
O587        O  0.33577611  0.57837425  0.71298414    -0.55000
O588        O  0.32142130  0.52823307  0.70081548    -0.74400
C589        C  0.30769787  0.51842361  0.72196997     0.98000
O590        O  0.23043281  0.54738221  0.71491232    -0.63200
O591        O  0.26847055  0.63933698  0.66938027    -0.58000
O592        O  0.26471895  0.57210685  0.74847995    -0.94700
O593        O  0.25546003  0.60212122  0.71769626    -0.93100
O594        O  0.22983760  0.60437376  0.62791436    -0.93400
O595        O  0.21029539  0.55464093  0.61933713    -0.92200
C596        C  0.25401826  0.58902247  0.74851363     1.16800
H597        H  0.26338705  0.60365705  0.57182713     0.32800
H598        H  0.24219620  0.53448603  0.62360994     0.43600
H599        H  0.29762458  0.57862875  0.71733480     0.37200
H600        H  0.32645102  0.54408051  0.57704623     0.33600
H601        H  0.20274904  0.58484723  0.55641297     0.25400
H602        H  0.27843532  0.48693730  0.54540720     0.31400
H603        H  0.35483853  0.53284686  0.62397022     0.37300
H604        H  0.22481228  0.61349994  0.60592465     0.31700
H605        H  0.28040965  0.64841699  0.66259665     0.30600
H606        H  0.30550422  0.61933911  0.71718881     0.32300
H607        H  0.34584397  0.58831910  0.70118779     0.31300
H608        H  0.20634981  0.56289237  0.64347625     0.35300
H609        H  0.22460882  0.56126170  0.70786049     0.28000
H610        H  0.31420257  0.57800548  0.47118138     0.32200
H611        H  0.34887794  0.57646602  0.59596984     0.35100
H612        H  0.25786576  0.64262896  0.64880556     0.27700
H613        H  0.22349147  0.53798565  0.69582485     0.40600
H614        H  0.25106170  0.51738779  0.53708008     0.30600
H615        H  0.20843904  0.56311139  0.53731063     0.38200
H616        H  0.34449973  0.56811751  0.72766174     0.30100
H617        H  0.29512044  0.48073628  0.57855642     0.30100
H618        H  0.33289754  0.57431155  0.50042817     0.30400
Zr619      Zr  0.18875106  0.55334642  0.29326066     2.17500
O620        O  0.18138839  0.57830506  0.23988302    -0.52000
O621        O  0.19482514  0.52336316  0.24749877    -0.75200
O622        O  0.22506055  0.56273224  0.26014616    -0.81900
O623        O  0.13149154  0.54569427  0.32761104    -0.83700
O624        O  0.24856695  0.56982955  0.30697403    -0.79300
O625        O  0.15241152  0.55571388  0.27457091    -0.90900
O626        O  0.17429116  0.49934073  0.27517055    -0.76900
O627        O  0.20752505  0.52562033  0.31339223    -0.86400
O628        O  0.16673882  0.52813651  0.32890642    -0.86100
O629        O  0.21126133  0.57216570  0.33528626    -0.72800
O630        O  0.17205796  0.56684271  0.35522481    -0.85000
Zr631      Zr  0.20661988  0.52707484  0.43907167     2.26400
Zr632      Zr  0.23410245  0.54290006  0.34458595     2.06300
Zr633      Zr  0.15283036  0.53998870  0.39224716     2.10000
Zr634      Zr  0.18711540  0.49928380  0.34157907     1.78800
O635        O  0.13487335  0.56905940  0.42516930    -0.93800
O636        O  0.20225668  0.46685298  0.31590214    -0.41600
O637        O  0.17701592  0.51234905  0.40489314    -0.78200
O638        O  0.21584322  0.51323276  0.37417805    -0.96900
O639        O  0.22165699  0.55578051  0.40585236    -0.90200
O640        O  0.18033154  0.55427762  0.43237528    -0.93100
C641        C  0.18659363  0.50511492  0.24800741     1.00700
C642        C  0.13458111  0.55057371  0.28949371     1.13600
C643        C  0.24426569  0.56779455  0.27077192     1.04400
O644        O  0.24050756  0.51750088  0.29220592    -0.95200
O645        O  0.25348949  0.53757828  0.40193845    -0.91000
O646        O  0.24021755  0.50911053  0.42447332    -0.84100
C647        C  0.25371203  0.51812486  0.40208697     1.11000
O648        O  0.17574521  0.61167769  0.37378071    -0.97200
Zr649      Zr  0.19680974  0.58272375  0.39897890     1.88900
O650        O  0.22897187  0.55171931  0.47412005    -0.73800
O651        O  0.27231211  0.54681018  0.34403273    -0.53100
O652        O  0.21847050  0.61237087  0.38026116    -0.97800
O653        O  0.17773271  0.59860653  0.45523655    -0.55000
O654        O  0.22384027  0.58473830  0.45019690    -0.74400
C655        C  0.23319293  0.57134525  0.47268026     0.98000
O656        O  0.21423927  0.49885876  0.48526480    -0.63200
O657        O  0.11928174  0.52278169  0.39917517    -0.58000
O658        O  0.17938040  0.52474011  0.49012166    -0.94700
O659        O  0.15141375  0.51483389  0.45527177    -0.93100
O660        O  0.15134536  0.48678038  0.34320693    -0.93400
O661        O  0.18711125  0.47127682  0.39110957    -0.92200
C662        C  0.16311296  0.51347497  0.48772627     1.16800
H663        H  0.15606823  0.52210560  0.31272771     0.32800
H664        H  0.22290846  0.49993940  0.37239666     0.43600
H665        H  0.17500050  0.55879256  0.45822543     0.37200
H666        H  0.21629417  0.58450256  0.32178079     0.33600
H667        H  0.19129367  0.45628121  0.32027390     0.25400
H668        H  0.27766445  0.54410001  0.31658585     0.31400
H669        H  0.23238009  0.60940967  0.39168797     0.37300
H670        H  0.15181816  0.47352040  0.32780792     0.31700
H671        H  0.10878618  0.53412409  0.39667411     0.30600
H672        H  0.14148182  0.58169247  0.41377886     0.32300
H673        H  0.17909496  0.61388098  0.45140192     0.31300
H674        H  0.17280525  0.47086998  0.40239373     0.35300
H675        H  0.21891483  0.48714318  0.46806298     0.28000
H676        H  0.18753487  0.57182951  0.21539800     0.32200
H677        H  0.17692159  0.61060871  0.34411543     0.35100
H678        H  0.11781974  0.51438257  0.37433642     0.27700
H679        H  0.22687354  0.50325018  0.49940819     0.40600
H680        H  0.23652704  0.52450330  0.26710321     0.30600
H681        H  0.20285243  0.46803325  0.28649925     0.38200
H682        H  0.18627246  0.59555971  0.47924992     0.30100
H683        H  0.27614316  0.56134348  0.35101233     0.30100
H684        H  0.19052901  0.59030757  0.24569641     0.30400
Zr685      Zr  0.20118736  0.43327334  0.05081425     2.17500
O686        O  0.17632199  0.42412460  0.99893080    -0.52000
O687        O  0.22960793  0.43436316  0.99952413    -0.75200
O688        O  0.19012316  0.46944976  0.01670209    -0.81900
O689        O  0.21140232  0.37811458  0.09398565    -0.83700
O690        O  0.18580849  0.49403826  0.06349870    -0.79300
O691        O  0.19233790  0.39624604  0.04780604    -0.90900
O692        O  0.25473569  0.41484666  0.02679847    -0.76900
O693        O  0.23017267  0.45135319  0.06332117    -0.86400
O694        O  0.22713108  0.41262708  0.08729903    -0.86100
O695        O  0.18516086  0.45865632  0.09166013    -0.72800
O696        O  0.18972102  0.42038946  0.11760864    -0.85000
Zr697      Zr  0.23409478  0.45634883  0.18963007     2.26400
Zr698      Zr  0.21555880  0.48044345  0.09262943     2.06300
Zr699      Zr  0.21720035  0.40196508  0.15484855     2.10000
Zr700      Zr  0.25712169  0.43139890  0.09078875     1.78800
O701        O  0.18699643  0.38872271  0.19118198    -0.93800
O702        O  0.28730874  0.44153442  0.05024223    -0.41600
O703        O  0.24624038  0.42466085  0.15758501    -0.78200
O704        O  0.24555399  0.46263512  0.12192266    -0.96900
O705        O  0.20514735  0.47092380  0.15681074    -0.90200
O706        O  0.20551002  0.43190576  0.19163799    -0.93100
C707        C  0.24792585  0.42590934  0.99855208     1.00700
C708        C  0.20366090  0.38039000  0.05771834     1.13600
C709        C  0.18545962  0.48902334  0.02743386     1.04400
O710        O  0.23899020  0.48512422  0.03601496    -0.95200
O711        O  0.22128833  0.49909047  0.15054406    -0.91000
O712        O  0.25038301  0.49009861  0.17670220    -0.84100
C713        C  0.24045859  0.50131804  0.15169473     1.11000
O714        O  0.14419632  0.43069673  0.14398038    -0.97200
Zr715      Zr  0.17678631  0.44824276  0.15900507     1.88900
O716        O  0.21285843  0.48297532  0.22345893    -0.73800
O717        O  0.21272721  0.51888716  0.08976471    -0.53100
O718        O  0.14717886  0.47105357  0.14413384    -0.97800
O719        O  0.16335105  0.43263281  0.22096185    -0.55000
O720        O  0.17934468  0.47870572  0.20263332    -0.74400
C721        C  0.19352383  0.48847215  0.22201144     0.98000
O722        O  0.26988760  0.45733819  0.21272872    -0.63200
O723        O  0.23164523  0.36746186  0.16921883    -0.58000
O724        O  0.23479946  0.43433330  0.24832058    -0.94700
O725        O  0.24233489  0.40353536  0.21847713    -0.93100
O726        O  0.26645328  0.39469094  0.10104545    -0.93400
O727        O  0.28680594  0.42995140  0.13563331    -0.92200
C728        C  0.24468467  0.41695383  0.24866878     1.16800
H729        H  0.23268355  0.40149744  0.07123914     0.32800
H730        H  0.25839640  0.47015794  0.12087279     0.43600
H731        H  0.20171750  0.42801034  0.21873763     0.37200
H732        H  0.17200270  0.46275589  0.08005690     0.33600
H733        H  0.29908731  0.44259767  0.06905902     0.25400
H734        H  0.21403476  0.52362618  0.06180181     0.31400
H735        H  0.15256747  0.48548032  0.14578371     0.37300
H736        H  0.27620448  0.39122363  0.07873746     0.31700
H737        H  0.21962223  0.35790276  0.16812767     0.30600
H738        H  0.19285813  0.38216793  0.21563712     0.32300
H739        H  0.14815312  0.43535983  0.22069824     0.31300
H740        H  0.29594866  0.41856929  0.12537010     0.35300
H741        H  0.27546267  0.44328930  0.20607605     0.28000
H742        H  0.18068117  0.43232807  0.97509849     0.32200
H743        H  0.14720492  0.42222891  0.11965596     0.35100
H744        H  0.24021358  0.36382286  0.14528410     0.27700
H745        H  0.27732034  0.46655166  0.19375638     0.40600
H746        H  0.23228895  0.47834533  0.01275997     0.30600
H747        H  0.29106500  0.42903532  0.03411336     0.38200
H748        H  0.16849220  0.44175241  0.24276928     0.30100
H749        H  0.19876595  0.52348259  0.09933889     0.30100
H750        H  0.16310632  0.43080387  0.00790595     0.30400
Zr751      Zr  0.31043576  0.45197987  0.79149559     2.17500
O752        O  0.31776146  0.42846862  0.73542784    -0.52000
O753        O  0.30667859  0.48332699  0.74730673    -0.75200
O754        O  0.27401901  0.44271827  0.75918671    -0.81900
O755        O  0.36717499  0.45737233  0.82705539    -0.83700
O756        O  0.25037482  0.43574314  0.80659718    -0.79300
O757        O  0.34677892  0.44613599  0.77485793    -0.90900
O758        O  0.32637161  0.50774671  0.77626171    -0.76900
O759        O  0.29227682  0.47996406  0.81269901    -0.86400
O760        O  0.33313253  0.47597301  0.82793160    -0.86100
O761        O  0.28731836  0.43313323  0.83296404    -0.72800
O762        O  0.32589460  0.43711346  0.85298528    -0.85000
Zr763      Zr  0.29196984  0.47688362  0.93878197     2.26400
Zr764      Zr  0.26504208  0.46283433  0.84307407     2.06300
Zr765      Zr  0.34553181  0.46271126  0.89161904     2.10000
Zr766      Zr  0.31329175  0.50505651  0.84275703     1.78800
O767        O  0.35893981  0.43126540  0.92392175    -0.93800
O768        O  0.30117519  0.53918805  0.81963309    -0.41600
O769        O  0.32241483  0.49113440  0.90554124    -0.78200
O770        O  0.28399333  0.49140359  0.87397997    -0.96900
O771        O  0.27631162  0.44895524  0.90417071    -0.90200
O772        O  0.31740234  0.44898243  0.93171114    -0.93100
C773        C  0.31480514  0.50173970  0.74824321     1.00700
C774        C  0.36443467  0.45154201  0.78949520     1.13600
C775        C  0.25477141  0.43762365  0.77024490     1.04400
O776        O  0.25852532  0.48793554  0.79038984    -0.95200
O777        O  0.24683604  0.46851618  0.90231285    -0.91000
O778        O  0.25978338  0.49687556  0.92541936    -0.84100
C779        C  0.24647151  0.48797541  0.90301596     1.11000
O780        O  0.31765326  0.39143711  0.86483418    -0.97200
Zr781      Zr  0.30061563  0.42145838  0.89656075     1.88900
O782        O  0.26844320  0.45247330  0.97220660    -0.73800
O783        O  0.22673320  0.46090483  0.84071190    -0.53100
O784        O  0.27810663  0.39152737  0.88585371    -0.97800
O785        O  0.32301048  0.40585971  0.94771036    -0.55000
O786        O  0.27323024  0.41944066  0.94807260    -0.74400
C787        C  0.26375418  0.43299055  0.97042717     0.98000
O788        O  0.28372508  0.50279139  0.98967808    -0.63200
O789        O  0.38165903  0.47167050  0.90475310    -0.58000
O790        O  0.31895432  0.47942052  0.98924302    -0.94700
O791        O  0.34694799  0.48891066  0.95316437    -0.93100
O792        O  0.34940156  0.51496389  0.85316677    -0.93400
O793        O  0.30809469  0.53211730  0.89315873    -0.92200
C794        C  0.33526333  0.49059220  0.98600210     1.16800
H795        H  0.34379925  0.48194571  0.81118068     0.32800
H796        H  0.27731392  0.50488152  0.87227485     0.43600
H797        H  0.32224702  0.44444492  0.95772984     0.37200
H798        H  0.28241439  0.42087155  0.81914831     0.33600
H799        H  0.31343219  0.54837688  0.82228745     0.25400
H800        H  0.22222523  0.46374371  0.81292516     0.31400
H801        H  0.26532265  0.39746194  0.87371416     0.37300
H802        H  0.35005196  0.52965308  0.84388470     0.31700
H803        H  0.38991016  0.45938194  0.89560523     0.30600
H804        H  0.36439373  0.43618285  0.95002375     0.32300
H805        H  0.32247467  0.39060296  0.94292799     0.31300
H806        H  0.32115049  0.53240978  0.90879194     0.35300
H807        H  0.28158756  0.51595988  0.97475403     0.28000
H808        H  0.30881073  0.43361365  0.71334921     0.32200
H809        H  0.31374665  0.39237784  0.83611639     0.35100
H810        H  0.38496947  0.48278703  0.88506425     0.27700
H811        H  0.26983642  0.49905405  0.00010960     0.40600
H812        H  0.26404406  0.48155694  0.76552158     0.30600
H813        H  0.29921401  0.53819397  0.79037867     0.38200
H814        H  0.31533441  0.40789536  0.97339145     0.30100
H815        H  0.22200166  0.44663332  0.84758980     0.30100
H816        H  0.31146772  0.41503872  0.74366096     0.30400
Zr817      Zr  0.30126949  0.44282215  0.47477190     2.17500
O818        O  0.32571802  0.43512641  0.52842996    -0.52000
O819        O  0.27092306  0.44761923  0.52050332    -0.75200
O820        O  0.30972218  0.47950004  0.50715184    -0.81900
O821        O  0.29509187  0.38542312  0.43912158    -0.83700
O822        O  0.31789199  0.50310491  0.46055224    -0.79300
O823        O  0.30480493  0.40621062  0.49217147    -0.90900
O824        O  0.24737374  0.42695026  0.49220062    -0.76900
O825        O  0.27351972  0.46153417  0.45489920    -0.86400
O826        O  0.27698888  0.42022929  0.43870024    -0.86100
O827        O  0.32015580  0.46604657  0.43358882    -0.72800
O828        O  0.31555734  0.42684159  0.41293792    -0.85000
Zr829      Zr  0.27572099  0.46123861  0.33005620     2.26400
Zr830      Zr  0.29078607  0.48880042  0.42423898     2.06300
Zr831      Zr  0.28972756  0.40724477  0.37503430     2.10000
Zr832      Zr  0.24811180  0.44037346  0.42604342     1.78800
O833        O  0.32066991  0.39274955  0.34216472    -0.93800
O834        O  0.21376739  0.45083575  0.45158440    -0.41600
O835        O  0.26147064  0.43071092  0.36274503    -0.78200
O836        O  0.26175525  0.46976663  0.39560744    -0.96900
O837        O  0.30413478  0.47692303  0.36278192    -0.90200
O838        O  0.30343409  0.43558693  0.33561855    -0.93100
C839        C  0.25284461  0.43908916  0.51972317     1.00700
C840        C  0.30009109  0.38833736  0.47703201     1.13600
C841        C  0.31501022  0.49878865  0.49667864     1.04400
O842        O  0.26977058  0.50280136  0.47854512    -0.95200
O843        O  0.28390517  0.50759483  0.36648598    -0.91000
O844        O  0.25579938  0.49349153  0.34549356    -0.84100
C845        C  0.26450194  0.50739603  0.36704635     1.11000
O846        O  0.35999525  0.43177963  0.39754285    -0.97200
Zr847      Zr  0.33129511  0.45219577  0.36983923     1.88900
O848        O  0.30034229  0.48399717  0.29572603    -0.73800
O849        O  0.29488283  0.52694898  0.41860830    -0.53100
O850        O  0.35982483  0.47549692  0.38641511    -0.97800
O851        O  0.34876362  0.43201039  0.31698332    -0.55000
O852        O  0.33360521  0.47834258  0.31668679    -0.74400
C853        C  0.31994646  0.48789190  0.29528149     0.98000
O854        O  0.25077241  0.46987085  0.27831719    -0.63200
O855        O  0.27810710  0.37151111  0.36447305    -0.58000
O856        O  0.27261770  0.43431967  0.27883694    -0.94700
O857        O  0.26420884  0.40537271  0.31320700    -0.93100
O858        O  0.23721588  0.40470864  0.41227334    -0.93400
O859        O  0.22137662  0.44805719  0.37727009    -0.92200
C860        C  0.26215075  0.41744766  0.28120829     1.16800
H861        H  0.27091918  0.40933967  0.45465509     0.32800
H862        H  0.24841038  0.47650388  0.39904170     0.43600
H863        H  0.30793159  0.43078672  0.30938608     0.37200
H864        H  0.33241565  0.47082746  0.44734345     0.33600
H865        H  0.20433516  0.43944989  0.44341204     0.25400
H866        H  0.29257571  0.53310311  0.44558807     0.31400
H867        H  0.36892649  0.47546620  0.36221616     0.37300
H868        H  0.22929545  0.40050253  0.43660239     0.31700
H869        H  0.28937123  0.36247266  0.37516736     0.30600
H870        H  0.31669111  0.39119172  0.31360240     0.32300
H871        H  0.36345664  0.43655975  0.31781522     0.31300
H872        H  0.22018773  0.43514077  0.36104903     0.35300
H873        H  0.23799141  0.47413415  0.29283365     0.28000
H874        H  0.32081777  0.44376159  0.55141920     0.32200
H875        H  0.35786291  0.43244978  0.42706761     0.35100
H876        H  0.26634447  0.36974590  0.38358721     0.27700
H877        H  0.25604180  0.48289316  0.26629246     0.40600
H878        H  0.25944309  0.49199339  0.48535561     0.30600
H879        H  0.21398170  0.44961823  0.48109117     0.38200
H880        H  0.34347519  0.43787588  0.29142506     0.30100
H881        H  0.30957387  0.52991909  0.41142594     0.30100
H882        H  0.33886072  0.44174441  0.51957661     0.30400
Zr883      Zr  0.18078181  0.45249631  0.71761489     2.17500
O884        O  0.17220829  0.42741273  0.77005009    -0.52000
O885        O  0.18304675  0.48104347  0.76806983    -0.75200
O886        O  0.21670051  0.44244440  0.75264985    -0.81900
O887        O  0.12556273  0.46110505  0.67557757    -0.83700
O888        O  0.24117524  0.43812887  0.70569417    -0.79300
O889        O  0.14407405  0.44328157  0.72347720    -0.90900
O890        O  0.16334998  0.50662558  0.74228631    -0.76900
O891        O  0.19804154  0.48199296  0.70407692    -0.86400
O892        O  0.15896683  0.47803506  0.68232670    -0.86100
O893        O  0.20628487  0.43662396  0.67686290    -0.72800
O894        O  0.16825768  0.44072931  0.65125536    -0.85000
Zr895      Zr  0.20315940  0.48578008  0.57808996     2.26400
Zr896      Zr  0.22728118  0.46757036  0.67515535     2.06300
Zr897      Zr  0.14905989  0.46785215  0.61443418     2.10000
Zr898      Zr  0.17736096  0.50828919  0.67605144     1.78800
O899        O  0.13568732  0.43796230  0.57764389    -0.93800
O900        O  0.18655552  0.54142940  0.70694514    -0.41600
O901        O  0.17120421  0.49728479  0.60972910    -0.78200
O902        O  0.20902019  0.49750151  0.64576360    -0.96900
O903        O  0.21820527  0.45703700  0.61098078    -0.90200
O904        O  0.17923091  0.45663430  0.57726865    -0.93100
C905        C  0.17484875  0.49950118  0.76959599     1.00700
C906        C  0.12750445  0.45287395  0.71160565     1.13600
C907        C  0.23627832  0.43811165  0.74188539     1.04400
O908        O  0.23134691  0.49109052  0.73163475    -0.95200
O909        O  0.24725841  0.47367525  0.61884132    -0.91000
O910        O  0.23591848  0.50278151  0.59503559    -0.84100
C911        C  0.24816809  0.49305463  0.61848090     1.11000
O912        O  0.17663611  0.39679551  0.62638269    -0.97200
Zr913      Zr  0.19619612  0.42814014  0.60969936     1.88900
O914        O  0.22982960  0.46482961  0.54355489    -0.73800
O915        O  0.26559752  0.46547038  0.67952356    -0.53100
O916        O  0.22026161  0.39980314  0.62615883    -0.97800
O917        O  0.18266760  0.41301226  0.54777332    -0.55000
O918        O  0.22681689  0.43124751  0.56617057    -0.74400
C919        C  0.23601328  0.44563596  0.54583253     0.98000
O920        O  0.20394054  0.52099662  0.55031125    -0.63200
O921        O  0.11416033  0.48142773  0.60155421    -0.58000
O922        O  0.18044083  0.48613483  0.52050549    -0.94700
O923        O  0.14986301  0.49342733  0.55109079    -0.93100
O924        O  0.14031686  0.51507483  0.66531089    -0.93400
O925        O  0.17388633  0.53979248  0.63566451    -0.92200
C926        C  0.16305550  0.49592375  0.52049387     1.16800
H927        H  0.14810461  0.48319820  0.69974280     0.32800
H928        H  0.21622412  0.51053643  0.64855936     0.43600
H929        H  0.17544916  0.45251522  0.55037044     0.37200
H930        H  0.21056763  0.42356549  0.68893995     0.33600
H931        H  0.17306777  0.54851064  0.71261589     0.25400
H932        H  0.26990272  0.46844257  0.70720798     0.31400
H933        H  0.21938330  0.39000057  0.60317762     0.37300
H934        H  0.13572079  0.52327288  0.68910961     0.31700
H935        H  0.10486034  0.46928154  0.60495911     0.30600
H936        H  0.14068024  0.42561269  0.59283099     0.32300
H937        H  0.18536836  0.39779645  0.55004797     0.31300
H938        H  0.16286452  0.53699842  0.61575594     0.35300
H939        H  0.19244303  0.52835859  0.56454650     0.28000
H940        H  0.17745518  0.43380605  0.79510652     0.32200
H941        H  0.17666935  0.39624393  0.65616092     0.35100
H942        H  0.11086481  0.49062947  0.62475349     0.27700
H943        H  0.21663712  0.52804029  0.55961675     0.40600
H944        H  0.22492053  0.48399040  0.75498914     0.30600
H945        H  0.19202548  0.53803113  0.73377093     0.38200
H946        H  0.19241508  0.41763716  0.52638587     0.30100
H947        H  0.27084969  0.45127336  0.67280257     0.30100
H948        H  0.18170117  0.41540329  0.76492483     0.30400
Zr949      Zr  0.31857220  0.55099487  0.21746024     2.17500
O950        O  0.32797514  0.57345877  0.27352640    -0.52000
O951        O  0.31882157  0.52160868  0.26601578    -0.75200
O952        O  0.28227918  0.56213995  0.25202135    -0.81900
O953        O  0.37345804  0.54111050  0.17256927    -0.83700
O954        O  0.25776920  0.56744920  0.20588826    -0.79300
O955        O  0.35490638  0.56171221  0.21557050    -0.90900
O956        O  0.33656198  0.49540890  0.23635976    -0.76900
O957        O  0.29882448  0.52062161  0.20974875    -0.86400
O958        O  0.33919487  0.52504618  0.17939174    -0.86100
O959        O  0.29314446  0.56753090  0.17769221    -0.72800
O960        O  0.33089423  0.56289501  0.15054172    -0.85000
Zr961      Zr  0.29538700  0.51977295  0.07671636     2.26400
Zr962      Zr  0.27084109  0.53754931  0.17579346     2.06300
Zr963      Zr  0.34974833  0.53596406  0.11203817     2.10000
Zr964      Zr  0.31992441  0.49540351  0.17263506     1.78800
O965        O  0.36313449  0.56654074  0.07715317    -0.93800
O966        O  0.31592404  0.46130545  0.20469707    -0.41600
O967        O  0.32707450  0.50695463  0.10677561    -0.78200
O968        O  0.28929381  0.50850820  0.14420203    -0.96900
O969        O  0.28065161  0.54817343  0.11168540    -0.90200
O970        O  0.31991306  0.54822682  0.07613201    -0.93100
C971        C  0.32673659  0.50301572  0.26591370     1.00700
C972        C  0.37056036  0.54966886  0.20802250     1.13600
C973        C  0.26276579  0.56710598  0.24192824     1.04400
O974        O  0.26927552  0.51449306  0.23374893    -0.95200
O975        O  0.25147226  0.53153581  0.11905992    -0.91000
O976        O  0.26199313  0.50296370  0.09131557    -0.84100
C977        C  0.25041359  0.51218579  0.11711264     1.11000
O978        O  0.32379004  0.60701970  0.12702797    -0.97200
Zr979      Zr  0.30316406  0.57649290  0.11031005     1.88900
O980        O  0.26892602  0.54114037  0.04358302    -0.73800
O981        O  0.23260935  0.53865344  0.18167548    -0.53100
O982        O  0.28039377  0.60593803  0.12719452    -0.97800
O983        O  0.31601604  0.59120527  0.04722511    -0.55000
O984        O  0.27219028  0.57434441  0.06791031    -0.74400
C985        C  0.26291652  0.56035792  0.04684859     0.98000
O986        O  0.29432036  0.48367742  0.05527777    -0.63200
O987        O  0.38471252  0.52357993  0.09465886    -0.58000
O988        O  0.31819363  0.51852879  0.01840980    -0.94700
O989        O  0.34849229  0.51056788  0.04871579    -0.93100
O990        O  0.35400398  0.48688028  0.14408250    -0.93400
O991        O  0.30795159  0.46399886  0.14023608    -0.92200
C992        C  0.33541973  0.50837106  0.01826812     1.16800
H993        H  0.35032472  0.51912941  0.19482947     0.32800
H994        H  0.28198836  0.49553526  0.14543726     0.43600
H995        H  0.32383868  0.55227835  0.04918474     0.37200
H996        H  0.28931376  0.58071121  0.18997643     0.33600
H997        H  0.33026016  0.45643592  0.21061925     0.25400
H998        H  0.22862608  0.53591839  0.20968974     0.31400
H999        H  0.26692402  0.59954379  0.13474404     0.37300
H1000       H  0.36201307  0.48105455  0.16687197     0.31700
H1001       H  0.39436664  0.53371445  0.10687429     0.30600
H1002       H  0.37668576  0.56929486  0.09006207     0.32300
H1003       H  0.31023394  0.60560367  0.04683017     0.31300
H1004       H  0.31970662  0.45973862  0.12249149     0.35300
H1005       H  0.30871281  0.47871257  0.06006445     0.28000
H1006       H  0.31934044  0.56846247  0.29634622     0.32200
H1007       H  0.33749265  0.60446813  0.11396493     0.35100
H1008       H  0.38662478  0.51061190  0.11049203     0.27700
H1009       H  0.28634683  0.47666108  0.07676105     0.40600
H1010       H  0.27263098  0.52307507  0.25765370     0.30600
H1011       H  0.30947657  0.46385191  0.23132333     0.38200
H1012       H  0.30823178  0.58386610  0.02591296     0.30100
H1013       H  0.22742154  0.55288783  0.17534743     0.30100
H1014       H  0.32196926  0.58729800  0.26667517     0.30400
Zr1015     Zr  0.19756299  0.56348847  0.97621144     2.17500
O1016       O  0.17271103  0.57159278  0.02988613    -0.52000
O1017       O  0.22803473  0.55916378  0.02152698    -0.75200
O1018       O  0.18885282  0.52695410  0.00950870    -0.81900
O1019       O  0.20355459  0.62049343  0.93929913    -0.83700
O1020       O  0.18247440  0.50297892  0.96268482    -0.79300
O1021       O  0.19272322  0.60021835  0.99244421    -0.90900
O1022       O  0.25232771  0.57934566  0.99304687    -0.76900
O1023       O  0.22581839  0.54544863  0.95608810    -0.86400
O1024       O  0.22202486  0.58600521  0.94000678    -0.86100
O1025       O  0.17962015  0.53976154  0.93496296    -0.72800
O1026       O  0.18343324  0.57842599  0.91359831    -0.85000
Zr1027     Zr  0.22468837  0.54420750  0.83028676     2.26400
Zr1028     Zr  0.20961997  0.51772439  0.92625247     2.06300
Zr1029     Zr  0.20949095  0.59822966  0.87595675     2.10000
Zr1030     Zr  0.25130978  0.56633222  0.92650368     1.78800
O1031       O  0.17875835  0.61262970  0.84334770    -0.93800
O1032       O  0.28503155  0.55418849  0.95092312    -0.41600
O1033       O  0.23807452  0.57503162  0.86311403    -0.78200
O1034       O  0.23846207  0.53662127  0.89583238    -0.96900
O1035       O  0.19658011  0.52838799  0.86423514    -0.90200
O1036       O  0.19663148  0.56960238  0.83647301    -0.93100
C1037       C  0.24633225  0.56737739  0.02072515     1.00700
C1038       C  0.19803156  0.61793162  0.97714427     1.13600
C1039       C  0.18422826  0.50751481  0.99888558     1.04400
O1040       O  0.23469952  0.51294901  0.97916240    -0.95200
O1041       O  0.21649060  0.49876047  0.86862273    -0.91000
O1042       O  0.24477418  0.51229500  0.84617135    -0.84100
C1043       C  0.23588219  0.49874396  0.86847739     1.11000
O1044       O  0.13845512  0.57280662  0.89141943    -0.97200
Zr1045     Zr  0.16883728  0.55239735  0.87037789     1.88900
O1046       O  0.20131959  0.51982710  0.79672527    -0.73800
O1047       O  0.20808217  0.47928102  0.92886274    -0.53100
O1048       O  0.13976001  0.53027088  0.89043141    -0.97800
O1049       O  0.15263939  0.56982832  0.81308792    -0.55000
O1050       O  0.16820545  0.52432165  0.82034692    -0.74400
C1051       C  0.18190429  0.51500425  0.79815301     0.98000
O1052       O  0.25105308  0.53633904  0.77975528    -0.63200
O1053       O  0.22273719  0.63338953  0.86537550    -0.58000
O1054       O  0.22633437  0.57137232  0.77935243    -0.94700
O1055       O  0.23473450  0.60031658  0.81348365    -0.93100
O1056       O  0.26043173  0.60266874  0.91412591    -0.93400
O1057       O  0.27955595  0.56221137  0.87805196    -0.92200
C1058       C  0.23669227  0.58828675  0.78141418     1.16800
H1059       H  0.22778105  0.59685765  0.95638589     0.32800
H1060       H  0.25186442  0.52997763  0.89903754     0.43600
H1061       H  0.19214087  0.57453686  0.81049334     0.37200
H1062       H  0.16732510  0.53477333  0.94867181     0.33600
H1063       H  0.29421515  0.56650954  0.94879052     0.25400
H1064       H  0.21100967  0.47476288  0.95661748     0.31400
H1065       H  0.14184554  0.51684320  0.87608470     0.37300
H1066       H  0.27551733  0.60334575  0.91988068     0.31700
H1067       H  0.21110029  0.64288882  0.87295834     0.30600
H1068       H  0.17279650  0.62252221  0.86335414     0.32300
H1069       H  0.13822581  0.56445373  0.81268873     0.31300
H1070       H  0.27979299  0.57537268  0.86240216     0.35300
H1071       H  0.26372991  0.53266875  0.79489534     0.28000
H1072       H  0.17377280  0.55976089  0.04897151     0.32200
H1073       H  0.13774707  0.57099714  0.92099191     0.35100
H1074       H  0.23323733  0.63532496  0.88669250     0.27700
H1075       H  0.24657434  0.52310965  0.76737087     0.40600
H1076       H  0.22746781  0.51727178  0.00404484     0.30600
H1077       H  0.28363272  0.55205911  0.98007287     0.38200
H1078       H  0.15927107  0.56345860  0.78897539     0.30100
H1079       H  0.19387102  0.47445413  0.92238767     0.30100
H1080       H  0.15890551  0.56995716  0.01723541     0.30400
C1081       C  0.25652771  0.82971727  0.41705119     0.79600
N1082       N  0.25611054  0.83711562  0.37846131    -0.78700
C1083       C  0.25285443  0.82399829  0.34707370     0.82000
N1084       N  0.24982542  0.80348019  0.35418989    -0.78600
C1085       C  0.24990596  0.79570064  0.39206553     0.82100
N1086       N  0.25357293  0.80882075  0.42358809    -0.80400
C1087       C  0.23185509  0.83270225  0.11223012     0.79600
N1088       N  0.22886619  0.81171771  0.10690376    -0.78700
C1089       C  0.23145810  0.79815688  0.13814541     0.82000
N1090       N  0.23747840  0.80564006  0.17426944    -0.78600
C1091       C  0.24050538  0.82625919  0.18029131     0.82100
N1092       N  0.23748901  0.83986814  0.14941655    -0.80400
C1093       C  0.22109207  0.67399434  0.10955916     0.79600
N1094       N  0.22635992  0.66549143  0.14636256    -0.78700
C1095       C  0.23248278  0.67818687  0.17744041     0.82000
N1096       N  0.23257544  0.69914867  0.17157778    -0.78600
C1097       C  0.22719929  0.70782153  0.13580801     0.82100
N1098       N  0.22172532  0.69518050  0.10474614    -0.80400
C1099       C  0.26249304  0.67240868  0.41421149     0.79600
N1100       N  0.25967862  0.66402780  0.37628749    -0.78700
C1101       C  0.25269676  0.67659255  0.34534744     0.82000
N1102       N  0.24913643  0.69718088  0.35277694    -0.78600
C1103       C  0.25213718  0.70563461  0.38976316     0.82100
N1104       N  0.25870790  0.69313115  0.42017272    -0.80400
C1105       C  0.08098856  0.52349028  0.15673223     0.79600
N1106       N  0.06089851  0.51808753  0.16472641    -0.78700
C1107       C  0.04891416  0.50905629  0.13624746     0.82000
N1108       N  0.05715650  0.50518393  0.09933023    -0.78600
C1109       C  0.07696781  0.51054943  0.08970141     0.82100
N1110       N  0.08903880  0.51989087  0.11859901    -0.80400
C1111       C  0.07970720  0.48220109  0.85211634     0.79600
N1112       N  0.05866949  0.48403624  0.84863715    -0.78700
C1113       C  0.04653737  0.48986007  0.88043452     0.82000
N1114       N  0.05571085  0.49421778  0.91607198    -0.78600
C1115       C  0.07662051  0.49268179  0.92090268     0.82100
N1116       N  0.08878001  0.48615470  0.88885419    -0.80400
C1117       C  0.92610611  0.50027826  0.16767796     0.79600
N1118       N  0.94712627  0.50048783  0.17354122    -0.78700
C1119       C  0.96051475  0.49450136  0.14361633     0.82000
N1120       N  0.95276167  0.48848766  0.10761702    -0.78600
C1121       C  0.93199580  0.48845382  0.10064638     0.82100
N1122       N  0.91865344  0.49458186  0.13066841    -0.80400
C1123       C  0.92293695  0.47557762  0.86093973     0.79600
N1124       N  0.91540573  0.47500244  0.89983544    -0.78700
C1125       C  0.92842483  0.47853491  0.93148342     0.82000
N1126       N  0.94870262  0.48255250  0.92404569    -0.78600
C1127       C  0.95648106  0.48342676  0.88616634     0.82100
N1128       N  0.94357277  0.47979238  0.85453986    -0.80400
C1129       C  0.41683410  0.51831822  0.34941399     0.79600
N1130       N  0.43769195  0.51476771  0.34450394    -0.78700
C1131       C  0.44955765  0.50729495  0.37503129     0.82000
N1132       N  0.44040746  0.50342655  0.41111259    -0.78600
C1133       C  0.41981926  0.50678247  0.41760247     0.82100
N1134       N  0.40787478  0.51446645  0.38661698    -0.80400
C1135       C  0.41683886  0.47811089  0.65450478     0.79600
N1136       N  0.40822697  0.48136752  0.61703556    -0.78700
C1137       C  0.42002469  0.49007790  0.58660716     0.82000
N1138       N  0.44022661  0.49480331  0.59387841    -0.78600
C1139       C  0.44899040  0.49105639  0.63024326     0.82100
N1140       N  0.43716787  0.48288612  0.66016801    -0.80400
C1141       C  0.57373862  0.51331015  0.35225896     0.79600
N1142       N  0.55296287  0.51093496  0.34546130    -0.78700
C1143       C  0.53952405  0.50791479  0.37669155     0.82000
N1144       N  0.54698696  0.50749338  0.41473804    -0.78600
C1145       C  0.56751959  0.50977139  0.42235456     0.82100
N1146       N  0.58097213  0.51282382  0.39100241    -0.80400
C1147       C  0.57215172  0.49070520  0.65972279     0.79600
N1148       N  0.58030106  0.49476654  0.62213646    -0.78700
C1149       C  0.56748184  0.50117393  0.59180580     0.82000
N1150       N  0.54683549  0.50293021  0.59913219    -0.78600
C1151       C  0.53842365  0.49879037  0.63555147     0.82100
N1152       N  0.55115194  0.49265662  0.66604088    -0.80400
C1153       C  0.75908463  0.33294507  0.90992644     0.79600
N1154       N  0.75858212  0.31193262  0.91688276    -0.78700
C1155       C  0.75333711  0.29847021  0.88701357     0.82000
N1156       N  0.74846537  0.30616870  0.85023698    -0.78600
C1157       C  0.74899627  0.32694068  0.84246994     0.82100
N1158       N  0.75443456  0.34034525  0.87234507    -0.80400
C1159       C  0.73400473  0.33598954  0.60444633     0.79600
N1160       N  0.73434835  0.34320686  0.64331785    -0.78700
C1161       C  0.73831147  0.32987152  0.67429966     0.82000
N1162       N  0.74203937  0.30946312  0.66634950    -0.78600
C1163       C  0.74193441  0.30194723  0.62824745     0.82100
N1164       N  0.73773013  0.31524084  0.59726316    -0.80400
C1165       C  0.77020962  0.17527236  0.90925949     0.79600
N1166       N  0.76758099  0.16736639  0.87097824    -0.78700
C1167       C  0.76060847  0.18009341  0.84051526     0.82000
N1168       N  0.75659400  0.20047826  0.84858026    -0.78600
C1169       C  0.75929859  0.20858378  0.88584800     0.82100
N1170       N  0.76614756  0.19596276  0.91597510    -0.80400
C1171       C  0.73421861  0.17893259  0.60355237     0.79600
N1172       N  0.73772652  0.19971817  0.59815357    -0.78700
C1173       C  0.74476817  0.21180037  0.62870893     0.82000
N1174       N  0.74840038  0.20284701  0.66499409    -0.78600
C1175       C  0.74500737  0.18225631  0.67165475     0.82100
N1176       N  0.73755084  0.17017452  0.64084580    -0.80400
C1177       C  0.42202327  0.97813983  0.36707618     0.79600
N1178       N  0.41405215  0.97866641  0.40561064    -0.78700
C1179       C  0.42653646  0.98320580  0.43742271     0.82000
N1180       N  0.44685287  0.98706320  0.43072043    -0.78600
C1181       C  0.45533505  0.98672250  0.39334374     0.82100
N1182       N  0.44285679  0.98214941  0.36126578    -0.80400
C1183       C  0.42026499  0.00600669  0.67352586     0.79600
N1184       N  0.41333005  0.00145957  0.63560533    -0.78700
C1185       C  0.42703387  0.99461152  0.60671795     0.82000
N1186       N  0.44751240  0.99287666  0.61581712    -0.78600
C1187       C  0.45465747  0.99779887  0.65290810     0.82100
N1188       N  0.44095205  0.00431367  0.68167820    -0.80400
C1189       C  0.57867789  0.98278598  0.37455328     0.79600
N1190       N  0.58706262  0.98537431  0.41235763    -0.78700
C1191       C  0.57470706  0.99248895  0.44364800     0.82000
N1192       N  0.55412638  0.99593754  0.43693434    -0.78600
C1193       C  0.54555023  0.99303277  0.40012239     0.82100
N1194       N  0.55799756  0.98657794  0.36925380    -0.80400
C1195       C  0.57591799  0.01889196  0.68184322     0.79600
N1196       N  0.58490778  0.01509196  0.64450301    -0.78700
C1197       C  0.57305752  0.00711312  0.61373550     0.82000
N1198       N  0.55264129  0.00330567  0.62082896    -0.78600
C1199       C  0.54355688  0.00733513  0.65692313     0.82100
N1200       N  0.55523538  0.01507198  0.68712571    -0.80400
C1201       C  0.06790139  0.98695666  0.16103077     0.79600
N1202       N  0.07529313  0.98950501  0.12246954    -0.78700
C1203       C  0.06230112  0.99610477  0.09261350     0.82000
N1204       N  0.04198657  0.99984334  0.10131734    -0.78600
C1205       C  0.03425786  0.99719041  0.13903221     0.82100
N1206       N  0.04730624  0.99079017  0.16879864    -0.80400
C1207       C  0.06310165  0.01546315  0.85469844     0.79600
N1208       N  0.07140048  0.01292206  0.89230052    -0.78700
C1209       C  0.05911341  0.00657163  0.92361963     0.82000
N1210       N  0.03858778  0.00325625  0.91730480    -0.78600
C1211       C  0.02998498  0.00606408  0.88051977     0.82100
N1212       N  0.04233774  0.01214269  0.84917774    -0.80400
C1213       C  0.91242169  0.98515642  0.17193545     0.79600
N1214       N  0.90311053  0.98810443  0.13507458    -0.78700
C1215       C  0.91437509  0.99589582  0.10318591     0.82000
N1216       N  0.93481079  0.00015901  0.10830300    -0.78600
C1217       C  0.94431605  0.99712041  0.14413674     0.82100
N1218       N  0.93304370  0.98956845  0.17560297    -0.80400
C1219       C  0.90658187  0.01935980  0.86543840     0.79600
N1220       N  0.92708685  0.01539607  0.85744834    -0.78700
C1221       C  0.93999647  0.00800646  0.88645767     0.82000
N1222       N  0.93216847  0.00420069  0.92375247    -0.78600
C1223       C  0.91189597  0.00812977  0.93308054     0.82100
N1224       N  0.89901451  0.01605187  0.90384660    -0.80400
Zr1225     Zr  0.79538574  0.93568976  0.97310419     2.17500
O1226       O  0.81796179  0.92623161  0.02874428    -0.52000
O1227       O  0.76608771  0.93599460  0.02363533    -0.75200
O1228       O  0.80528265  0.97175581  0.00820752    -0.81900
O1229       O  0.78946462  0.88120762  0.92320005    -0.83700
O1230       O  0.81028825  0.99624595  0.96180630    -0.79300
O1231       O  0.80948285  0.90040005  0.96433623    -0.90900
O1232       O  0.74027056  0.91789030  0.99572122    -0.76900
O1233       O  0.76590947  0.95323530  0.96043714    -0.86400
O1234       O  0.77085585  0.91412691  0.93498319    -0.86100
O1235       O  0.81152069  0.96184552  0.93489310    -0.72800
O1236       O  0.80784576  0.92505930  0.90528082    -0.85000
Zr1237     Zr  0.76329377  0.95996995  0.83650165     2.26400
Zr1238     Zr  0.78043708  0.98301536  0.93415438     2.06300
Zr1239     Zr  0.78204480  0.90589237  0.86577792     2.10000
Zr1240     Zr  0.74052893  0.93280520  0.93013791     1.78800
O1241       O  0.81198069  0.89119065  0.82991973    -0.93800
O1242       O  0.70584963  0.93549824  0.96049874    -0.41600
O1243       O  0.75158511  0.92706931  0.86318057    -0.78200
O1244       O  0.75168640  0.96457020  0.90432014    -0.96900
O1245       O  0.79140535  0.97590198  0.86893975    -0.90200
O1246       O  0.79330186  0.93683650  0.83306771    -0.93100
C1247       C  0.74745678  0.92841059  0.02446030     1.00700
C1248       C  0.79853944  0.88409829  0.95770186     1.13600
C1249       C  0.80996312  0.99126772  0.99782557     1.04400
O1250       O  0.75723975  0.98547150  0.99177936    -0.95200
O1251       O  0.77244009  0.00318781  0.87931417    -0.91000
O1252       O  0.74389986  0.99138338  0.85554408    -0.84100
C1253       C  0.75308714  0.00343102  0.87978189     1.11000
O1254       O  0.85295377  0.93552751  0.88360197    -0.97200
Zr1255     Zr  0.82075792  0.95388006  0.86677313     1.88900
O1256       O  0.78285314  0.98615019  0.80233098    -0.73800
O1257       O  0.78088175  0.02144795  0.93821437    -0.53100
O1258       O  0.84697077  0.97952503  0.88481296    -0.97800
O1259       O  0.83818621  0.93921312  0.80746834    -0.55000
O1260       O  0.81709667  0.98330193  0.81977068    -0.74400
C1261       C  0.80181707  0.99197325  0.80096143     0.98000
O1262       O  0.73063725  0.96127959  0.80046120    -0.63200
O1263       O  0.76711120  0.87169439  0.85287758    -0.58000
O1264       O  0.76745995  0.94129773  0.77579462    -0.94700
O1265       O  0.75941824  0.90946484  0.79887314    -0.93100
O1266       O  0.73341486  0.89764080  0.90601600    -0.93400
O1267       O  0.71138250  0.94600381  0.89172457    -0.92200
C1268       C  0.75785649  0.92432771  0.77112913     1.16800
H1269       H  0.76568980  0.90264141  0.95080111     0.32800
H1270       H  0.73854353  0.97146149  0.90881044     0.43600
H1271       H  0.79827410  0.93343892  0.80637605     0.37200
H1272       H  0.82467157  0.96507626  0.94732275     0.33600
H1273       H  0.70146445  0.92086552  0.96493102     0.25400
H1274       H  0.77790863  0.02575291  0.96596801     0.31400
H1275       H  0.85721094  0.97908463  0.86237238     0.37300
H1276       H  0.71805675  0.89649379  0.90727972     0.31700
H1277       H  0.75244360  0.87461310  0.84562700     0.30600
H1278       H  0.82392423  0.89384611  0.84782959     0.32300
H1279       H  0.85216799  0.94563210  0.80721226     0.31300
H1280       H  0.70868912  0.93492824  0.87165468     0.35300
H1281       H  0.72421961  0.94754328  0.80585254     0.28000
H1282       H  0.80981037  0.92994500  0.05317348     0.32200
H1283       H  0.85543350  0.93905167  0.91217343     0.35100
H1284       H  0.77375415  0.86698799  0.82742182     0.27700
H1285       H  0.72181123  0.97121656  0.81565346     0.40600
H1286       H  0.76447616  0.97849523  0.01431262     0.30600
H1287       H  0.70754508  0.94131122  0.98777924     0.38200
H1288       H  0.83108775  0.94572191  0.78422480     0.30100
H1289       H  0.79501356  0.02661605  0.93173508     0.30100
H1290       H  0.82930794  0.93660932  0.02776251     0.30400
Zr1291     Zr  0.68471447  0.95578574  0.23686812     2.17500
O1292       O  0.67747003  0.93430142  0.29574640    -0.52000
O1293       O  0.68709193  0.98813296  0.27956667    -0.75200
O1294       O  0.72156225  0.94636191  0.26739710    -0.81900
O1295       O  0.62797603  0.96044660  0.20179929    -0.83700
O1296       O  0.74456930  0.93838333  0.21912238    -0.79300
O1297       O  0.64854647  0.94949376  0.25403433    -0.90900
O1298       O  0.66715798  0.01233776  0.24953467    -0.76900
O1299       O  0.70259539  0.98333947  0.21425534    -0.86400
O1300       O  0.66141040  0.97927141  0.20046526    -0.86100
O1301       O  0.70784427  0.93634582  0.19539473    -0.72800
O1302       O  0.67035693  0.93958906  0.17564030    -0.85000
Zr1303     Zr  0.70289227  0.97927349  0.08782085     2.26400
Zr1304     Zr  0.72978227  0.96566135  0.18333479     2.06300
Zr1305     Zr  0.64969125  0.96471836  0.13757947     2.10000
Zr1306     Zr  0.68088013  0.00790734  0.18352810     1.78800
O1307       O  0.63669843  0.93265166  0.10789994    -0.93800
O1308       O  0.68904280  0.04319456  0.20610332    -0.41600
O1309       O  0.67212166  0.99323274  0.12148019    -0.78200
O1310       O  0.71065386  0.99431146  0.15235312    -0.96900
O1311       O  0.71950265  0.95165602  0.12195712    -0.90200
O1312       O  0.67814451  0.95121944  0.09701552    -0.93100
C1313       C  0.67846746  0.00654079  0.27826809     1.00700
C1314       C  0.63081709  0.95499030  0.23944220     1.13600
C1315       C  0.74062460  0.94078084  0.25548039     1.04400
O1316       O  0.73515653  0.99131777  0.23495261    -0.95200
O1317       O  0.74879501  0.97086051  0.12504149    -0.91000
O1318       O  0.73487177  0.99906333  0.10227932    -0.84100
C1319       C  0.74867742  0.99030640  0.12418997     1.11000
O1320       O  0.67981090  0.89269360  0.15789357    -0.97200
Zr1321     Zr  0.69618566  0.92407524  0.13130846     1.88900
O1322       O  0.72647026  0.95501931  0.05229506    -0.73800
O1323       O  0.76808662  0.96282680  0.18400954    -0.53100
O1324       O  0.72221523  0.89788205  0.14952327    -0.97800
O1325       O  0.67692628  0.90680087  0.07782820    -0.55000
O1326       O  0.72333944  0.92224068  0.07821166    -0.74400
C1327       C  0.73188458  0.93560147  0.05425925     0.98000
O1328       O  0.71055591  0.00548695  0.03735751    -0.63200
O1329       O  0.61351687  0.97389646  0.12393970    -0.58000
O1330       O  0.67449019  0.97992916  0.03989317    -0.94700
O1331       O  0.64669343  0.99000940  0.07630913    -0.93100
O1332       O  0.64502257  0.01433608  0.16321727    -0.93400
O1333       O  0.68756472  0.03701945  0.13900018    -0.92200
C1334       C  0.65808080  0.99119480  0.04335559     1.16800
H1335       H  0.65063992  0.98545166  0.21697722     0.32800
H1336       H  0.71734359  0.00767393  0.15478978     0.43600
H1337       H  0.67318076  0.94603284  0.07157826     0.37200
H1338       H  0.71253309  0.92408480  0.20974556     0.33600
H1339       H  0.67533238  0.05011130  0.21038304     0.25400
H1340       H  0.77301722  0.96598490  0.21131739     0.31400
H1341       H  0.73504031  0.90594998  0.15451193     0.37300
H1342       H  0.64403276  0.02968537  0.15981355     0.31700
H1343       H  0.60526848  0.96209150  0.13459263     0.30600
H1344       H  0.63325558  0.93651455  0.07987154     0.32300
H1345       H  0.66364676  0.90221444  0.09013368     0.31300
H1346       H  0.67869034  0.03432459  0.11535155     0.35300
H1347       H  0.71338228  0.01838829  0.05258341     0.28000
H1348       H  0.67804218  0.94414071  0.31872280     0.32200
H1349       H  0.68004195  0.89454271  0.18747400     0.35100
H1350       H  0.61030805  0.98568932  0.14234416     0.27700
H1351       H  0.72413708  0.00125665  0.02568382     0.40600
H1352       H  0.73181027  0.98400479  0.26007810     0.30600
H1353       H  0.69482419  0.04197935  0.23333109     0.38200
H1354       H  0.68478720  0.89368858  0.07251645     0.30100
H1355       H  0.77270108  0.94837249  0.17754637     0.30100
H1356       H  0.68992564  0.92523570  0.29885628     0.30400
Zr1357     Zr  0.79965521  0.05682143  0.73240249     2.17500
O1358       O  0.80791401  0.08234763  0.78421118    -0.52000
O1359       O  0.79973596  0.02665949  0.77755154    -0.75200
O1360       O  0.76406274  0.06395267  0.76822575    -0.81900
O1361       O  0.85572650  0.04492327  0.69654582    -0.83700
O1362       O  0.74119709  0.07929514  0.72747079    -0.79300
O1363       O  0.83605367  0.05670773  0.75007957    -0.90900
O1364       O  0.81050040  0.00006005  0.73773733    -0.76900
O1365       O  0.77605364  0.03359821  0.71000698    -0.86400
O1366       O  0.81824248  0.03018812  0.69338995    -0.86100
O1367       O  0.77814063  0.07989796  0.69515084    -0.72800
O1368       O  0.81759137  0.07063485  0.67306010    -0.85000
Zr1369     Zr  0.78056627  0.04085938  0.58197321     2.26400
Zr1370     Zr  0.75167180  0.05495823  0.67951965     2.06300
Zr1371     Zr  0.83398835  0.04287939  0.63261781     2.10000
Zr1372     Zr  0.79272255  0.00637888  0.67626056     1.78800
O1373       O  0.85488159  0.07053088  0.60287795    -0.93800
O1374       O  0.79145460  0.96965526  0.69684122    -0.41600
O1375       O  0.80645697  0.01959403  0.61515620    -0.78200
O1376       O  0.76719370  0.02591878  0.64316524    -0.96900
O1377       O  0.76661807  0.06905011  0.62107358    -0.90200
O1378       O  0.80939538  0.06366095  0.59561695    -0.93100
C1379       C  0.80562946  0.00765190  0.77155627     1.00700
C1380       C  0.85316069  0.04961678  0.73470372     1.13600
C1381       C  0.74532987  0.07172372  0.76106267     1.04400
O1382       O  0.72967421  0.03353992  0.72225313    -0.95200
O1383       O  0.73411854  0.05604172  0.61892499    -0.91000
O1384       O  0.74396112  0.02867428  0.58534361    -0.84100
C1385       C  0.73110280  0.03740780  0.60983608     1.11000
O1386       O  0.81666901  0.11716204  0.66800085    -0.97200
Zr1387     Zr  0.79437019  0.09212636  0.63432983     1.88900
O1388       O  0.78243997  0.07411840  0.54815437    -0.73800
O1389       O  0.71568519  0.06742750  0.67108655    -0.53100
O1390       O  0.77615571  0.12349912  0.65769357    -0.97800
O1391       O  0.81526893  0.10877917  0.58210005    -0.55000
O1392       O  0.76737948  0.09873356  0.58426537    -0.74400
C1393       C  0.76823358  0.08784549  0.55223650     0.98000
O1394       O  0.76390478  0.03637091  0.51756463    -0.63200
O1395       O  0.86521393  0.02108345  0.62720589    -0.58000
O1396       O  0.80479437  0.01895847  0.54353512    -0.94700
O1397       O  0.83771259  0.01988270  0.56737770    -0.93100
O1398       O  0.81547751  0.98979042  0.62654596    -0.93400
O1399       O  0.76423052  0.98217007  0.66996154    -0.92200
C1400       C  0.82410904  0.01340617  0.54073638     1.16800
H1401       H  0.82920512  0.02303642  0.70730087     0.32800
H1402       H  0.75809789  0.01429495  0.63850591     0.43600
H1403       H  0.81637123  0.06833774  0.57140563     0.37200
H1404       H  0.77414106  0.09183905  0.71131698     0.33600
H1405       H  0.80582979  0.96422244  0.69310848     0.25400
H1406       H  0.70809563  0.06474097  0.69656493     0.31400
H1407       H  0.76118601  0.11996114  0.65654956     0.37300
H1408       H  0.82776731  0.98502853  0.64198789     0.31700
H1409       H  0.87693934  0.03034574  0.63405100     0.30600
H1410       H  0.86733636  0.07130947  0.62016467     0.32300
H1411       H  0.82987555  0.10663180  0.59061069     0.31300
H1412       H  0.76396050  0.97938804  0.64088124     0.35300
H1413       H  0.75915448  0.02173605  0.51678949     0.28000
H1414       H  0.79504823  0.08392429  0.80057609     0.32200
H1415       H  0.81503065  0.11397248  0.69701026     0.35100
H1416       H  0.86420633  0.01114499  0.64996190     0.27700
H1417       H  0.75113438  0.04504716  0.51922784     0.40600
H1418       H  0.73814591  0.03167107  0.74651506     0.30600
H1419       H  0.78901999  0.96918835  0.72626072     0.38200
H1420       H  0.81266467  0.12394294  0.58576504     0.30100
H1421       H  0.71636237  0.08286481  0.66899967     0.30100
H1422       H  0.80910414  0.09574451  0.76949535     0.30400
Zr1423     Zr  0.70541673  0.07876460  0.47628664     2.17500
O1424       O  0.68480051  0.08707055  0.53591054    -0.52000
O1425       O  0.73434318  0.08440712  0.52390751    -0.75200
O1426       O  0.69623379  0.04289940  0.50937276    -0.81900
O1427       O  0.71342314  0.13221556  0.43008573    -0.83700
O1428       O  0.72251061  0.02145257  0.49429078    -0.79300
O1429       O  0.69313247  0.11468896  0.47415879    -0.90900
O1430       O  0.76259221  0.09192265  0.48578730    -0.76900
O1431       O  0.73031662  0.05591125  0.45806328    -0.86400
O1432       O  0.73038834  0.09797526  0.43573153    -0.86100
O1433       O  0.68365388  0.05532289  0.44066570    -0.72800
O1434       O  0.69089321  0.09118250  0.41183501    -0.85000
Zr1435     Zr  0.72848911  0.05216712  0.33219629     2.26400
Zr1436     Zr  0.70997597  0.02929838  0.43164534     2.06300
Zr1437     Zr  0.71706651  0.10805744  0.36991543     2.10000
Zr1438     Zr  0.75650885  0.07414573  0.42459465     1.78800
O1439       O  0.68673091  0.12276068  0.33630767    -0.93800
O1440       O  0.79133036  0.06807546  0.45159004    -0.41600
O1441       O  0.74413179  0.08280646  0.36062998    -0.78200
O1442       O  0.74015157  0.04487854  0.39881158    -0.96900
O1443       O  0.69948126  0.03944584  0.36831807    -0.90200
O1444       O  0.70183055  0.07909946  0.33539202    -0.93100
C1445       C  0.75361445  0.08951780  0.51940282     1.00700
C1446       C  0.70472560  0.13026837  0.46551672     1.13600
C1447       C  0.70544899  0.02442279  0.51166505     1.04400
O1448       O  0.70808472  0.99143490  0.44386666    -0.95200
O1449       O  0.71562338  0.00847193  0.37595735    -0.91000
O1450       O  0.74408846  0.01769258  0.34679398    -0.84100
C1451       C  0.73483281  0.00652472  0.37299569     1.11000
O1452       O  0.64505764  0.08709913  0.39735185    -0.97200
Zr1453     Zr  0.67347967  0.06490104  0.37274985     1.88900
O1454       O  0.70510698  0.02816344  0.29943208    -0.73800
O1455       O  0.67367353  0.01849766  0.44150865    -0.53100
O1456       O  0.64224068  0.04469710  0.38679077    -0.97800
O1457       O  0.65864480  0.08342998  0.31532314    -0.55000
O1458       O  0.67271962  0.03394894  0.32650934    -0.74400
C1459       C  0.68576554  0.02358312  0.30378342     0.98000
O1460       O  0.76254918  0.04847313  0.30103004    -0.63200
O1461       O  0.73085433  0.14265630  0.35502349    -0.58000
O1462       O  0.73015486  0.07585269  0.27518095    -0.94700
O1463       O  0.74070957  0.10536786  0.30550193    -0.93100
O1464       O  0.76578486  0.10616955  0.38946645    -0.93400
O1465       O  0.78487905  0.05798131  0.38796809    -0.92200
C1466       C  0.74126264  0.09236023  0.27473843     1.16800
H1467       H  0.73714837  0.10908438  0.45001942     0.32800
H1468       H  0.75264938  0.03666257  0.40028346     0.43600
H1469       H  0.69735103  0.08321887  0.30888441     0.37200
H1470       H  0.67149268  0.05284841  0.45726300     0.33600
H1471       H  0.79789661  0.08199620  0.45333513     0.25400
H1472       H  0.66972441  0.01233054  0.41534746     0.31400
H1473       H  0.64032371  0.04526453  0.41635172     0.37300
H1474       H  0.78095525  0.10755812  0.39372118     0.31700
H1475       H  0.73412856  0.14267760  0.32587649     0.30600
H1476       H  0.67484299  0.11924581  0.35413784     0.32300
H1477       H  0.64339314  0.08338793  0.31991690     0.31300
H1478       H  0.79112964  0.06984043  0.37316595     0.35300
H1479       H  0.77036962  0.05984469  0.31398076     0.28000
H1480       H  0.69263832  0.08073212  0.55843748     0.32200
H1481       H  0.64809012  0.08927219  0.42621976     0.35100
H1482       H  0.71871866  0.15222815  0.35763013     0.27700
H1483       H  0.76915423  0.03546564  0.31069502     0.40600
H1484       H  0.71976657  0.98718058  0.46132308     0.30600
H1485       H  0.78959082  0.06348278  0.47971359     0.38200
H1486       H  0.66079694  0.07380787  0.29227868     0.30100
H1487       H  0.67343198  0.00657737  0.46039134     0.30100
H1488       H  0.67216780  0.07841261  0.53349797     0.30400
Zr1489     Zr  0.81482538  0.95641841  0.30502144     2.17500
O1490       O  0.82555969  0.93260117  0.25140667    -0.52000
O1491       O  0.81374578  0.98484630  0.25432158    -0.75200
O1492       O  0.77871121  0.94587269  0.27134681    -0.81900
O1493       O  0.86965715  0.96517434  0.35141254    -0.83700
O1494       O  0.75473500  0.94108953  0.31891697    -0.79300
O1495       O  0.85100843  0.94460613  0.30994614    -0.90900
O1496       O  0.83186599  0.01057871  0.28254743    -0.76900
O1497       O  0.79684757  0.98585553  0.31850397    -0.86400
O1498       O  0.83523262  0.98186532  0.34300814    -0.86100
O1499       O  0.78910331  0.94038544  0.34386008    -0.72800
O1500       O  0.82699078  0.94467345  0.37168798    -0.85000
Zr1501     Zr  0.79086480  0.98820551  0.44360330     2.26400
Zr1502     Zr  0.76738836  0.97148252  0.34587713     2.06300
Zr1503     Zr  0.84519948  0.97136835  0.41098194     2.10000
Zr1504     Zr  0.81647689  0.01229186  0.34780722     1.78800
O1505       O  0.86015355  0.94146854  0.44594509    -0.93800
O1506       O  0.80534900  0.04506546  0.31745160    -0.41600
O1507       O  0.82268630  0.00071554  0.41412973    -0.78200
O1508       O  0.78480074  0.00094399  0.37701069    -0.96900
O1509       O  0.77671142  0.96011129  0.40894509    -0.90200
O1510       O  0.81505816  0.95898700  0.44533129    -0.93100
C1511       C  0.82116581  0.00349603  0.25416200     1.00700
C1512       C  0.86678125  0.95630050  0.31643057     1.13600
C1513       C  0.75934086  0.94122967  0.28270180     1.04400
O1514       O  0.76384503  0.99510787  0.28922731    -0.95200
O1515       O  0.74829892  0.97676400  0.40389931    -0.91000
O1516       O  0.75706239  0.00539854  0.43232090    -0.84100
C1517       C  0.74587634  0.99596113  0.40663982     1.11000
O1518       O  0.82031626  0.90145355  0.38880552    -0.97200
Zr1519     Zr  0.79890163  0.93104561  0.41059647     1.88900
O1520       O  0.76514595  0.96692657  0.47650485    -0.73800
O1521       O  0.72899163  0.96926170  0.34368999    -0.53100
O1522       O  0.77754096  0.90084709  0.39484823    -0.97800
O1523       O  0.81261087  0.91559293  0.47212607    -0.55000
O1524       O  0.76689527  0.93374134  0.45120615    -0.74400
C1525       C  0.75829266  0.94825544  0.47265380     0.98000
O1526       O  0.79175571  0.02324516  0.46925165    -0.63200
O1527       O  0.87936985  0.98656514  0.42129270    -0.58000
O1528       O  0.81069263  0.98591997  0.50370280    -0.94700
O1529       O  0.84142072  0.99539621  0.47727880    -0.93100
O1530       O  0.85316683  0.02210684  0.34849794    -0.93400
O1531       O  0.82074718  0.04002165  0.39741783    -0.92200
C1532       C  0.82712952  0.99671517  0.50650454     1.16800
H1533       H  0.84638591  0.98705961  0.32662531     0.32800
H1534       H  0.77712229  0.01389643  0.37639778     0.43600
H1535       H  0.81863302  0.95433360  0.47202738     0.37200
H1536       H  0.78597771  0.92705090  0.33170444     0.33600
H1537       H  0.81615262  0.05523577  0.32512055     0.25400
H1538       H  0.72356784  0.97390064  0.31763218     0.31400
H1539       H  0.76375337  0.90674932  0.38767356     0.37300
H1540       H  0.85339751  0.03651375  0.33761473     0.31700
H1541       H  0.87729817  0.00167225  0.41601991     0.30600
H1542       H  0.86232274  0.93085931  0.42456763     0.32300
H1543       H  0.81237623  0.90031444  0.46740426     0.31300
H1544       H  0.83503915  0.03873430  0.40816639     0.35300
H1545       H  0.80630938  0.02783995  0.46563333     0.28000
H1546       H  0.81772870  0.93737912  0.22752241     0.32200
H1547       H  0.81893604  0.90120999  0.35914334     0.35100
H1548       H  0.88166872  0.98564368  0.45065835     0.27700
H1549       H  0.78403442  0.03100971  0.44841691     0.40600
H1550       H  0.77059419  0.98798851  0.26606416     0.30600
H1551       H  0.80728269  0.04364588  0.28815490     0.38200
H1552       H  0.80155727  0.91804909  0.49257525     0.30100
H1553       H  0.72404738  0.95481703  0.34804826     0.30100
H1554       H  0.81917667  0.91908630  0.25876859     0.30400
Zr1555     Zr  0.79518951  0.06549733  0.04707598     2.17500
O1556       O  0.81694705  0.07280720  0.98853557    -0.52000
O1557       O  0.76440160  0.05971380  0.00384778    -0.75200
O1558       O  0.80497185  0.02895352  0.01506412    -0.81900
O1559       O  0.78834469  0.12324661  0.08214975    -0.83700
O1560       O  0.81196931  0.00528528  0.06236672    -0.79300
O1561       O  0.79883406  0.10211538  0.02978742    -0.90900
O1562       O  0.74046538  0.08080607  0.03162486    -0.76900
O1563       O  0.76762958  0.04755299  0.06913748    -0.86400
O1564       O  0.77078565  0.08827462  0.08367204    -0.86100
O1565       O  0.81414457  0.04219895  0.08813031    -0.72800
O1566       O  0.81017533  0.08125290  0.10785045    -0.85000
Zr1567     Zr  0.76999753  0.04754117  0.19383245     2.26400
Zr1568     Zr  0.78474316  0.02003089  0.09890928     2.06300
Zr1569     Zr  0.78419234  0.10123983  0.14626383     2.10000
Zr1570     Zr  0.74193317  0.06869339  0.09867416     1.78800
O1571       O  0.81533878  0.11468892  0.17820148    -0.93800
O1572       O  0.70876952  0.05499886  0.07578312    -0.41600
O1573       O  0.75604903  0.07827359  0.16068799    -0.78200
O1574       O  0.75577166  0.03915061  0.12932123    -0.96900
O1575       O  0.79817638  0.03157104  0.15959190    -0.90200
O1576       O  0.79769494  0.07287074  0.18616965    -0.93100
C1577       C  0.74606831  0.06802185  0.00488335     1.00700
C1578       C  0.79342677  0.12008771  0.04421874     1.13600
C1579       C  0.81016754  0.00968969  0.02614227     1.04400
O1580       O  0.75955854  0.01278420  0.04770725    -0.95200
O1581       O  0.77901018  0.00121284  0.15703075    -0.91000
O1582       O  0.75080436  0.01500695  0.18032218    -0.84100
C1583       C  0.75961458  0.00129507  0.15796467     1.11000
O1584       O  0.85549481  0.07194389  0.11970145    -0.97200
Zr1585     Zr  0.82543473  0.05560355  0.15151248     1.88900
O1586       O  0.79417324  0.02383263  0.22796192    -0.73800
O1587       O  0.78770198  0.98158818  0.09862963    -0.53100
O1588       O  0.85489732  0.03196103  0.14065923    -0.97800
O1589       O  0.84156859  0.07734339  0.20277264    -0.55000
O1590       O  0.82703288  0.02829041  0.20305051    -0.74400
C1591       C  0.81369935  0.01907746  0.22590198     0.98000
O1592       O  0.74077822  0.04100194  0.23863592    -0.63200
O1593       O  0.77265751  0.13713451  0.15818750    -0.58000
O1594       O  0.76929733  0.07495304  0.24405117    -0.94700
O1595       O  0.75934381  0.10322699  0.20907961    -0.93100
O1596       O  0.73028123  0.10496882  0.10390451    -0.93400
O1597       O  0.71680913  0.06700844  0.15380011    -0.92200
C1598       C  0.75821832  0.09151029  0.24160810     1.16800
H1599       H  0.76463175  0.09900469  0.06733468     0.32800
H1600       H  0.74251592  0.03234031  0.12732671     0.43600
H1601       H  0.80251510  0.07788400  0.21182729     0.37200
H1602       H  0.82654077  0.03726273  0.07436854     0.33600
H1603       H  0.69826153  0.06497815  0.08657376     0.25400
H1604       H  0.78518432  0.97654395  0.07106048     0.31400
H1605       H  0.86457294  0.03501468  0.16293863     0.37300
H1606       H  0.71604127  0.10498873  0.09267013     0.31700
H1607       H  0.78439336  0.14599334  0.14929977     0.30600
H1608       H  0.81935551  0.12688532  0.16164755     0.32300
H1609       H  0.85675292  0.07543870  0.19862078     0.31300
H1610       H  0.70929755  0.08058905  0.15365431     0.35300
H1611       H  0.72890738  0.03867547  0.22054244     0.28000
H1612       H  0.80864051  0.06792209  0.96541776     0.32200
H1613       H  0.85236126  0.07184013  0.09057191     0.35100
H1614       H  0.76161309  0.13966846  0.13809127     0.27700
H1615       H  0.74353384  0.02731081  0.25129915     0.40600
H1616       H  0.76520523  0.01896934  0.02293560     0.30600
H1617       H  0.70804780  0.05754210  0.04666887     0.38200
H1618       H  0.83867904  0.07009243  0.22850791     0.30100
H1619       H  0.80210972  0.97728850  0.10551085     0.30100
H1620       H  0.82862788  0.06264940  0.99030594     0.30400
Zr1621     Zr  0.67219098  0.05037045  0.81252276     2.17500
O1622       O  0.66251341  0.07442586  0.75898146    -0.52000
O1623       O  0.67059160  0.02079077  0.76389711    -0.75200
O1624       O  0.70795494  0.06282660  0.77850735    -0.81900
O1625       O  0.61790465  0.04055932  0.85978263    -0.83700
O1626       O  0.73269435  0.06624378  0.82509177    -0.79300
O1627       O  0.63596432  0.06167572  0.81807447    -0.90900
O1628       O  0.65455113  0.99392728  0.79410661    -0.76900
O1629       O  0.69253319  0.01982681  0.81832591    -0.86400
O1630       O  0.65288170  0.02429639  0.85121740    -0.86100
O1631       O  0.69762098  0.06616605  0.85220964    -0.72800
O1632       O  0.66017933  0.06223691  0.87975043    -0.85000
Zr1633     Zr  0.69727561  0.01892719  0.95355260     2.26400
Zr1634     Zr  0.72029290  0.03592122  0.85308610     2.06300
Zr1635     Zr  0.64238529  0.03520547  0.91854724     2.10000
Zr1636     Zr  0.67247097  0.99424304  0.85658076     1.78800
O1637       O  0.62833016  0.06565108  0.95372611    -0.93800
O1638       O  0.68460023  0.96240099  0.82331131    -0.41600
O1639       O  0.66591265  0.00631537  0.92272855    -0.78200
O1640       O  0.70333518  0.00667703  0.88633429    -0.96900
O1641       O  0.71101059  0.04706471  0.91743343    -0.90200
O1642       O  0.67208286  0.04734648  0.95420103    -0.93100
C1643       C  0.66361936  0.00184362  0.76418832     1.00700
C1644       C  0.62063065  0.04941006  0.82474372     1.13600
C1645       C  0.72726081  0.06781698  0.78934225     1.04400
O1646       O  0.71809661  0.01156313  0.79779727    -0.95200
O1647       O  0.73952108  0.03268634  0.91120286    -0.91000
O1648       O  0.73158197  0.00365939  0.93979909    -0.84100
C1649       C  0.74245617  0.01357847  0.91413463     1.11000
O1650       O  0.66564622  0.10605026  0.90982931    -0.97200
Zr1651     Zr  0.68794681  0.07551008  0.91949354     1.88900
O1652       O  0.72300110  0.04156985  0.98584778    -0.73800
O1653       O  0.75704371  0.03408900  0.83100736    -0.53100
O1654       O  0.70768848  0.10604133  0.89854996    -0.97800
O1655       O  0.67704934  0.08947897  0.98480661    -0.55000
O1656       O  0.72012352  0.07405044  0.95776356    -0.74400
C1657       C  0.72925191  0.06051483  0.98028100     0.98000
O1658       O  0.69955891  0.98276436  0.97665045    -0.63200
O1659       O  0.60839092  0.02086347  0.93541560    -0.58000
O1660       O  0.67431805  0.01898383  0.01134350    -0.94700
O1661       O  0.64417946  0.01047805  0.98157741    -0.93100
O1662       O  0.63639569  0.98500265  0.87115636    -0.93400
O1663       O  0.67411831  0.96207658  0.89543010    -0.92200
C1664       C  0.65740859  0.00869221  0.01163879     1.16800
H1665       H  0.64165066  0.01886775  0.83569101     0.32800
H1666       H  0.71124289  0.99387250  0.88601958     0.43600
H1667       H  0.66802665  0.05170640  0.98093886     0.37200
H1668       H  0.70095611  0.07957309  0.84062761     0.33600
H1669       H  0.67184689  0.95415208  0.81877155     0.25400
H1670       H  0.75783450  0.03183803  0.80171165     0.31400
H1671       H  0.71028214  0.11378900  0.92380608     0.37300
H1672       H  0.63300907  0.97405315  0.85123040     0.31700
H1673       H  0.59831899  0.03233026  0.93018437     0.30600
H1674       H  0.62360937  0.06015143  0.98007489     0.32300
H1675       H  0.68272012  0.10381864  0.98536784     0.31300
H1676       H  0.66188716  0.96247242  0.91373043     0.35300
H1677       H  0.68619273  0.97663464  0.96822283     0.28000
H1678       H  0.67177790  0.07063611  0.73611551     0.32200
H1679       H  0.65163969  0.10153464  0.91872699     0.35100
H1680       H  0.60569959  0.01038668  0.91418519     0.27700
H1681       H  0.70988672  0.97566150  0.95909250     0.40600
H1682       H  0.73261836  0.00682629  0.79486344     0.30600
H1683       H  0.68892378  0.96661993  0.79602561     0.38200
H1684       H  0.68550787  0.08178127  0.00480126     0.30100
H1685       H  0.76433952  0.04724996  0.83725088     0.30100
H1686       H  0.66760783  0.08817492  0.76819088     0.30400
Zr1687     Zr  0.69568112  0.94707938  0.54972701     2.17500
O1688       O  0.66794631  0.94505129  0.50044991    -0.52000
O1689       O  0.72313302  0.94759170  0.49705060    -0.75200
O1690       O  0.70298552  0.98605642  0.52700714    -0.81900
O1691       O  0.71180039  0.89153042  0.58351883    -0.83700
O1692       O  0.67879028  0.00863222  0.54791267    -0.79300
O1693       O  0.69889348  0.91096932  0.53099687    -0.90900
O1694       O  0.75060371  0.93813730  0.53377988    -0.76900
O1695       O  0.71397816  0.97327925  0.57112752    -0.86400
O1696       O  0.72480339  0.93030610  0.58208262    -0.86100
O1697       O  0.66931960  0.96071430  0.59450178    -0.72800
O1698       O  0.68631415  0.92822674  0.61238605    -0.85000
Zr1699     Zr  0.71878720  0.97290996  0.68849413     2.26400
Zr1700     Zr  0.68746776  0.99173600  0.60615178     2.06300
Zr1701     Zr  0.71690447  0.91502111  0.64543790     2.10000
Zr1702     Zr  0.74605872  0.95882728  0.59158668     1.78800
O1703       O  0.69351056  0.89012517  0.67718440    -0.93800
O1704       O  0.76347462  0.99076101  0.56822535    -0.41600
O1705       O  0.73840130  0.94564576  0.65535460    -0.78200
O1706       O  0.72427101  0.98405343  0.62091755    -0.96900
O1707       O  0.68425943  0.97727916  0.66762719    -0.90200
O1708       O  0.69946514  0.94019935  0.68838204    -0.93100
C1709       C  0.74256071  0.94292958  0.50104196     1.00700
C1710       C  0.70613996  0.89387454  0.54580302     1.13600
C1711       C  0.69497155  0.00525149  0.52836779     1.04400
O1712       O  0.67498543  0.01279887  0.66282182    -0.95200
O1713       O  0.69894414  0.02428701  0.62529709    -0.91000
O1714       O  0.72529995  0.01044803  0.66151387    -0.84100
C1715       C  0.71750974  0.02448851  0.63640401     1.11000
O1716       O  0.64797266  0.91361459  0.65336323    -0.97200
Zr1717     Zr  0.66571010  0.94676946  0.66214424     1.88900
O1718       O  0.69205911  0.98732832  0.73218627    -0.73800
O1719       O  0.65184512  0.00056433  0.58535167    -0.53100
O1720       O  0.63071425  0.95841355  0.64451291    -0.97800
O1721       O  0.65592608  0.92661609  0.72150754    -0.55000
O1722       O  0.66023450  0.97454431  0.71490575    -0.74400
C1723       C  0.67213117  0.98695244  0.73538007     0.98000
O1724       O  0.74188559  0.98794074  0.73844036    -0.63200
O1725       O  0.74623957  0.89071896  0.64076027    -0.58000
O1726       O  0.73751638  0.94578743  0.72826454    -0.94700
O1727       O  0.73719235  0.91158737  0.71079160    -0.93100
O1728       O  0.76629483  0.94218038  0.64515947    -0.93400
O1729       O  0.78245505  0.95607152  0.56944034    -0.92200
C1730       C  0.74289047  0.92648350  0.73489510     1.16800
H1731       H  0.73170594  0.91885790  0.56890485     0.32800
H1732       H  0.73388737  0.99414910  0.60979494     0.43600
H1733       H  0.69836367  0.93477943  0.71542171     0.37200
H1734       H  0.65622693  0.96224098  0.58068923     0.33600
H1735       H  0.77672276  0.99253008  0.58281742     0.25400
H1736       H  0.64260612  0.99312151  0.60442506     0.31400
H1737       H  0.62589299  0.96687936  0.66778520     0.37300
H1738       H  0.77286855  0.92960767  0.63284940     0.31700
H1739       H  0.73985090  0.87672490  0.63887193     0.30600
H1740       H  0.69415953  0.87767233  0.65949274     0.32300
H1741       H  0.64161580  0.93149818  0.72809278     0.31300
H1742       H  0.78596954  0.94096639  0.56913794     0.35300
H1743       H  0.75359600  0.97816017  0.74311257     0.28000
H1744       H  0.67455890  0.93819556  0.47681242     0.32200
H1745       H  0.64225849  0.91432205  0.62580226     0.35100
H1746       H  0.75238449  0.89320604  0.61378289     0.27700
H1747       H  0.74857826  0.00002553  0.72547271     0.40600
H1748       H  0.65961485  0.01161181  0.66301468     0.30600
H1749       H  0.76753909  0.98830928  0.53986097     0.38200
H1750       H  0.66449436  0.93222814  0.74359326     0.30100
H1751       H  0.64959546  0.01545265  0.59272187     0.30100
H1752       H  0.66568040  0.95971491  0.49188038     0.30400
Zr1753     Zr  0.81465407  0.53616536  0.29559583     2.17500
O1754       O  0.81885340  0.55876861  0.23722587    -0.52000
O1755       O  0.82096182  0.50457932  0.25563794    -0.75200
O1756       O  0.85122732  0.53895608  0.27924280    -0.81900
O1757       O  0.75220465  0.52505496  0.30232777    -0.83700
O1758       O  0.86804851  0.52193156  0.32984940    -0.79300
O1759       O  0.77781211  0.53546151  0.26024364    -0.90900
O1760       O  0.83606178  0.48400939  0.30069729    -0.76900
O1761       O  0.83521655  0.51243965  0.33586624    -0.86400
O1762       O  0.79106669  0.51079719  0.31853960    -0.86100
O1763       O  0.83184786  0.55404340  0.35263360    -0.72800
O1764       O  0.79673098  0.55938584  0.33633219    -0.85000
Zr1765     Zr  0.79422885  0.52477812  0.44398603     2.26400
Zr1766     Zr  0.84875589  0.52823111  0.39572358     2.06300
Zr1767     Zr  0.77081530  0.53769844  0.35215230     2.10000
Zr1768     Zr  0.81251391  0.48699663  0.35688787     1.78800
O1769       O  0.77632727  0.56940193  0.31267752    -0.93800
O1770       O  0.84596190  0.47498286  0.38379147    -0.41600
O1771       O  0.78795345  0.51023820  0.38385926    -0.78200
O1772       O  0.82226687  0.50367913  0.41637363    -0.96900
O1773       O  0.82297172  0.54797064  0.43330155    -0.90200
O1774       O  0.78085990  0.55389670  0.40902091    -0.93100
C1775       C  0.82899773  0.48691158  0.26585749     1.00700
C1776       C  0.75814967  0.53043596  0.26843069     1.13600
C1777       C  0.86659914  0.52806043  0.29245021     1.04400
O1778       O  0.88456633  0.51680302  0.40689322    -0.95200
O1779       O  0.85269639  0.50939005  0.46359634    -0.91000
O1780       O  0.82062856  0.51341993  0.49199893    -0.84100
C1781       C  0.83953871  0.50676121  0.49342794     1.11000
O1782       O  0.82763300  0.60515645  0.36471634    -0.97200
Zr1783     Zr  0.80904840  0.57570305  0.39378543     1.88900
O1784       O  0.77747230  0.55365337  0.48135235    -0.73800
O1785       O  0.86710245  0.55981918  0.41481858    -0.53100
O1786       O  0.83569644  0.58963696  0.43778708    -0.97800
O1787       O  0.78630124  0.60405613  0.37151099    -0.55000
O1788       O  0.78651533  0.58478613  0.45292381    -0.74400
C1789       C  0.77600647  0.57375311  0.47851959     0.98000
O1790       O  0.77282770  0.50694258  0.49179263    -0.63200
O1791       O  0.73552128  0.55279296  0.35097732    -0.58000
O1792       O  0.76581802  0.50605435  0.40711921    -0.94700
O1793       O  0.74535158  0.53304642  0.40305405    -0.93100
O1794       O  0.80303945  0.45501867  0.32121994    -0.93400
O1795       O  0.80475226  0.45442252  0.39177871    -0.92200
C1796       C  0.74822754  0.51397886  0.39680247     1.16800
H1797       H  0.78436600  0.50310621  0.29742829     0.32800
H1798       H  0.82538793  0.49181499  0.43315645     0.43600
H1799       H  0.76778737  0.56089144  0.41454960     0.37200
H1800       H  0.84252128  0.56302069  0.34173868     0.33600
H1801       H  0.84763452  0.46049859  0.37367673     0.25400
H1802       H  0.87135395  0.55729341  0.44299862     0.31400
H1803       H  0.82790050  0.59561143  0.46096467     0.37300
H1804       H  0.81624997  0.44706407  0.31775832     0.31700
H1805       H  0.73209525  0.55610036  0.32269415     0.30600
H1806       H  0.76278483  0.57286285  0.30012513     0.32300
H1807       H  0.78677272  0.61455512  0.39338959     0.31300
H1808       H  0.81553981  0.45284652  0.41269206     0.35300
H1809       H  0.76090916  0.50090111  0.47755671     0.28000
H1810       H  0.81165538  0.57194802  0.24485331     0.32200
H1811       H  0.82606868  0.60346935  0.33528242     0.35100
H1812       H  0.73685101  0.56670040  0.36380624     0.27700
H1813       H  0.78227008  0.49521128  0.49763525     0.40600
H1814       H  0.88541879  0.50240261  0.39607241     0.30600
H1815       H  0.85678026  0.48291029  0.36913075     0.38200
H1816       H  0.77207706  0.59825152  0.37337293     0.30100
H1817       H  0.88028224  0.55934290  0.39915942     0.30100
H1818       H  0.80991239  0.55252990  0.21632972     0.30400
Zr1819     Zr  0.70982111  0.57764006  0.54369396     2.17500
O1820       O  0.68280463  0.58478107  0.49427717    -0.52000
O1821       O  0.74025120  0.57744122  0.49713616    -0.75200
O1822       O  0.70709132  0.61423670  0.52737085    -0.81900
O1823       O  0.69227824  0.52112290  0.55624302    -0.83700
O1824       O  0.71743638  0.63288468  0.58233619    -0.79300
O1825       O  0.70357095  0.54287888  0.50894882    -0.90900
O1826       O  0.76403542  0.59408388  0.53330702    -0.76900
O1827       O  0.73251839  0.59939757  0.58288535    -0.86400
O1828       O  0.73876070  0.55581439  0.56045811    -0.86100
O1829       O  0.69220938  0.59113319  0.60428612    -0.72800
O1830       O  0.69230770  0.55186763  0.58247152    -0.85000
Zr1831     Zr  0.72900448  0.55720034  0.69235574     2.26400
Zr1832     Zr  0.71659140  0.61061580  0.64518506     2.06300
Zr1833     Zr  0.72088740  0.52906078  0.59624782     2.10000
Zr1834     Zr  0.76100671  0.57842378  0.59858895     1.78800
O1835       O  0.71141097  0.49225438  0.59609137    -0.93800
O1836       O  0.76950651  0.61466031  0.61528740    -0.41600
O1837       O  0.74271764  0.55183230  0.62925978    -0.78200
O1838       O  0.74484825  0.58698006  0.66038966    -0.96900
O1839       O  0.70158542  0.58221738  0.68259329    -0.90200
O1840       O  0.70320640  0.53908321  0.65407208    -0.93100
C1841       C  0.75912941  0.58353945  0.50267027     1.00700
C1842       C  0.69717870  0.52442240  0.52027160     1.13600
C1843       C  0.71262412  0.63134192  0.54433771     1.04400
O1844       O  0.72544297  0.64690350  0.65886009    -0.95200
O1845       O  0.73602654  0.61463682  0.71206314    -0.91000
O1846       O  0.72682236  0.58480477  0.74270127    -0.84100
C1847       C  0.73700375  0.60188171  0.74270098     1.11000
O1848       O  0.64561419  0.57671131  0.60911383    -0.97200
Zr1849     Zr  0.67640782  0.56391830  0.64402727     1.88900
O1850       O  0.70443041  0.53353098  0.72637286    -0.73800
O1851       O  0.68259189  0.62295813  0.66850687    -0.53100
O1852       O  0.65593273  0.58650017  0.68853102    -0.97800
O1853       O  0.65279695  0.53606312  0.62485854    -0.55000
O1854       O  0.67182116  0.54131198  0.70353212    -0.74400
C1855       C  0.68454553  0.53053097  0.72525532     0.98000
O1856       O  0.75542106  0.55239387  0.74234174    -0.63200
O1857       O  0.74308589  0.51155593  0.54668980    -0.58000
O1858       O  0.75533527  0.53064125  0.67743129    -0.94700
O1859       O  0.72971625  0.51226559  0.65717077    -0.93100
O1860       O  0.79221835  0.56576792  0.56442823    -0.93400
O1861       O  0.79263442  0.57733999  0.63842469    -0.92200
C1862       C  0.74889404  0.51479465  0.65893333     1.16800
H1863       H  0.74638672  0.54950514  0.53849879     0.32800
H1864       H  0.75613970  0.59212106  0.67644673     0.43600
H1865       H  0.69701665  0.52572566  0.65974966     0.37200
H1866       H  0.68133913  0.60065189  0.59577811     0.33600
H1867       H  0.77286656  0.62148248  0.58934777     0.25400
H1868       H  0.68506592  0.62852226  0.69584509     0.31400
H1869       H  0.64197110  0.58005965  0.68966900     0.37300
H1870       H  0.80050718  0.57841418  0.55854556     0.31700
H1871       H  0.73842685  0.49689152  0.54484797     0.30600
H1872       H  0.69833811  0.49157541  0.61204435     0.32300
H1873       H  0.64346946  0.53411898  0.64840302     0.31300
H1874       H  0.79160579  0.58903603  0.65785023     0.35300
H1875       H  0.75760757  0.53716775  0.74512375     0.28000
H1876       H  0.67313227  0.59472979  0.50780863     0.32200
H1877       H  0.64819984  0.57312663  0.58049805     0.35100
H1878       H  0.73852611  0.51757223  0.52082176     0.27700
H1879       H  0.76812685  0.55837942  0.73056949     0.40600
H1880       H  0.71240959  0.65359761  0.66867239     0.30600
H1881       H  0.75647519  0.62158983  0.62447998     0.38200
H1882       H  0.66161248  0.52328035  0.62420183     0.30100
H1883       H  0.67951844  0.63542175  0.65185989     0.30100
H1884       H  0.67476477  0.57167407  0.49267700     0.30400
Zr1885     Zr  0.79052589  0.44388717  0.05056554     2.17500
O1886       O  0.81566364  0.43903591  0.99610626    -0.52000
O1887       O  0.76011528  0.44623585  0.00625472    -0.75200
O1888       O  0.78681052  0.40835504  0.02695022    -0.81900
O1889       O  0.79209430  0.50797737  0.06115511    -0.83700
O1890       O  0.77257321  0.38803391  0.07659756    -0.79300
O1891       O  0.79164649  0.48100497  0.01699176    -0.90900
O1892       O  0.73477996  0.43281342  0.04452526    -0.76900
O1893       O  0.76339848  0.42422350  0.08425435    -0.86400
O1894       O  0.76891653  0.47094920  0.07549826    -0.86100
O1895       O  0.80343776  0.42190813  0.10689716    -0.72800
O1896       O  0.81546767  0.45675465  0.09446105    -0.85000
Zr1897     Zr  0.77626376  0.45522415  0.19913971     2.26400
Zr1898     Zr  0.77464661  0.40542733  0.14377608     2.06300
Zr1899     Zr  0.79777267  0.48567317  0.11228614     2.10000
Zr1900     Zr  0.74179535  0.45061101  0.10652499     1.78800
O1901       O  0.83181403  0.48943239  0.08014108    -0.93800
O1902       O  0.71950461  0.42074140  0.12151147    -0.41600
O1903       O  0.77707358  0.45600020  0.12934449    -0.78200
O1904       O  0.75193763  0.43353953  0.16594546    -0.96900
O1905       O  0.79700737  0.42506276  0.18730912    -0.90200
O1906       O  0.80691543  0.47019734  0.17083693    -0.93100
C1907       C  0.74125196  0.44016472  0.01137581     1.00700
C1908       C  0.79095051  0.50120195  0.02618273     1.13600
C1909       C  0.77835178  0.39136188  0.03956147     1.04400
O1910       O  0.75367974  0.37383950  0.14437651    -0.95200
O1911       O  0.75309774  0.40292818  0.20941700    -0.91000
O1912       O  0.77069109  0.42623385  0.24509221    -0.84100
C1913       C  0.75551145  0.41364089  0.24247132     1.11000
O1914       O  0.85443042  0.41840775  0.12443657    -0.97200
Zr1915     Zr  0.82645503  0.43982455  0.15311943     1.88900
O1916       O  0.80251475  0.46721622  0.24393561    -0.73800
O1917       O  0.80132700  0.38072301  0.16561140    -0.53100
O1918       O  0.83580936  0.40989223  0.19468485    -0.97800
O1919       O  0.85945661  0.45667712  0.13764356    -0.55000
O1920       O  0.83425769  0.46003359  0.21590132    -0.74400
C1921       C  0.82231707  0.46890475  0.24271446     0.98000
O1922       O  0.75562734  0.47614776  0.24383424    -0.63200
O1923       O  0.81112114  0.51598208  0.14860841    -0.58000
O1924       O  0.75524041  0.47924388  0.15745140    -0.94700
O1925       O  0.77652958  0.50523499  0.15378387    -0.93100
O1926       O  0.71620479  0.46993575  0.06718922    -0.93400
O1927       O  0.71955707  0.46903780  0.15455202    -0.92200
C1928       C  0.75964075  0.49726433  0.14379470     1.16800
H1929       H  0.76207962  0.47972683  0.05602589     0.32800
H1930       H  0.73926974  0.43135179  0.18112783     0.43600
H1931       H  0.81299116  0.48267296  0.18155087     0.37200
H1932       H  0.81151782  0.41067091  0.09495060     0.33600
H1933       H  0.70920647  0.42018790  0.09955898     0.25400
H1934       H  0.79504650  0.37336937  0.18887927     0.31400
H1935       H  0.83536841  0.41524689  0.22264273     0.37300
H1936       H  0.70768081  0.45977027  0.05232919     0.31700
H1937       H  0.82623589  0.51327371  0.15162250     0.30600
H1938       H  0.83352786  0.50464890  0.07596807     0.32300
H1939       H  0.86783216  0.45503919  0.16235971     0.31300
H1940       H  0.72360585  0.46400251  0.18161615     0.35300
H1941       H  0.75631169  0.46832740  0.26939132     0.28000
H1942       H  0.82489757  0.45130810  0.99800949     0.32200
H1943       H  0.84987849  0.41519228  0.09673872     0.35100
H1944       H  0.81033864  0.52767394  0.12914609     0.27700
H1945       H  0.76460362  0.48837930  0.24818303     0.40600
H1946       H  0.76030648  0.36448051  0.16432708     0.30600
H1947       H  0.72842835  0.40824321  0.11701067     0.38200
H1948       H  0.85605296  0.47178677  0.13669278     0.30100
H1949       H  0.80200610  0.37009206  0.14396287     0.30100
H1950       H  0.80749208  0.44153180  0.97137705     0.30400
Zr1951     Zr  0.68353588  0.46402202  0.79078893     2.17500
O1952       O  0.67898809  0.43729867  0.73936518    -0.52000
O1953       O  0.68424426  0.49426744  0.74360543    -0.75200
O1954       O  0.64714261  0.46133915  0.77324730    -0.81900
O1955       O  0.73835880  0.44681812  0.80617056    -0.83700
O1956       O  0.62772511  0.47354647  0.82634316    -0.79300
O1957       O  0.71855084  0.45813008  0.75672878    -0.90900
O1958       O  0.66379537  0.51675359  0.77628596    -0.76900
O1959       O  0.66013846  0.48614782  0.82868391    -0.86400
O1960       O  0.70336777  0.49421274  0.80778336    -0.86100
O1961       O  0.67009157  0.44677170  0.85201159    -0.72800
O1962       O  0.70924335  0.44783171  0.83213159    -0.85000
Zr1963     Zr  0.70015162  0.48850727  0.93803199     2.26400
Zr1964     Zr  0.64850627  0.47116401  0.89085706     2.06300
Zr1965     Zr  0.73103468  0.47727611  0.84357272     2.10000
Zr1966     Zr  0.67786432  0.51658627  0.84188698     1.78800
O1967       O  0.76831849  0.46985080  0.84631186    -0.93800
O1968       O  0.63980854  0.51735235  0.84320955    -0.41600
O1969       O  0.70851815  0.50337968  0.87420199    -0.78200
O1970       O  0.66953046  0.50097611  0.90375534    -0.96900
O1971       O  0.67737648  0.45937338  0.92972688    -0.90200
O1972       O  0.71998151  0.46183048  0.90355015    -0.93100
C1973       C  0.67630174  0.51271987  0.74804651     1.00700
C1974       C  0.73671796  0.45229320  0.77014378     1.13600
C1975       C  0.62996920  0.46833385  0.78847036     1.04400
O1976       O  0.61178444  0.47740124  0.90589608    -0.95200
O1977       O  0.64423070  0.49084674  0.95892440    -0.91000
O1978       O  0.67458181  0.48425090  0.99036552    -0.84100
C1979       C  0.65677173  0.49318786  0.98961012     1.11000
O1980       O  0.68640893  0.39997127  0.86794103    -0.97200
Zr1981     Zr  0.69729912  0.43349011  0.89516499     1.88900
O1982       O  0.72155330  0.46565704  0.97942327    -0.73800
O1983       O  0.63748953  0.43643362  0.91147181    -0.53100
O1984       O  0.67476913  0.41432171  0.94114830    -0.97800
O1985       O  0.72644880  0.41029263  0.87899926    -0.55000
O1986       O  0.71785551  0.43192080  0.95810438    -0.74400
C1987       C  0.72563524  0.44595942  0.98147158     0.98000
O1988       O  0.69496301  0.52221169  0.97077979    -0.63200
O1989       O  0.74782938  0.49829396  0.79094466    -0.58000
O1990       O  0.72954527  0.51205474  0.92929064    -0.94700
O1991       O  0.74735758  0.48646862  0.90443187    -0.93100
O1992       O  0.68546485  0.54999008  0.81018180    -0.93400
O1993       O  0.67025543  0.54650694  0.88573587    -0.92200
C1994       C  0.74453284  0.50563833  0.90767763     1.16800
H1995       H  0.71015568  0.50166385  0.78623298     0.32800
H1996       H  0.66241766  0.51195810  0.91828338     0.43600
H1997       H  0.73272604  0.45585592  0.91358800     0.37200
H1998       H  0.66151292  0.43523823  0.84369262     0.33600
H1999       H  0.63559255  0.51921737  0.87168390     0.25400
H2000       H  0.63061609  0.43857675  0.93794071     0.31400
H2001       H  0.68417095  0.40429583  0.95484485     0.37300
H2002       H  0.67169933  0.55629411  0.80413809     0.31700
H2003       H  0.76305159  0.49603875  0.79268960     0.30600
H2004       H  0.76941587  0.45591380  0.85912938     0.32300
H2005       H  0.72602636  0.39939011  0.90012561     0.31300
H2006       H  0.65721736  0.55284020  0.87550287     0.35300
H2007       H  0.70747423  0.53085029  0.96852568     0.28000
H2008       H  0.67084944  0.44416176  0.71781173     0.32200
H2009       H  0.68426702  0.40259403  0.83890181     0.35100
H2010       H  0.74571620  0.51314706  0.79734436     0.27700
H2011       H  0.68460550  0.52977352  0.95435981     0.40600
H2012       H  0.61034854  0.49280496  0.90749317     0.30600
H2013       H  0.63582735  0.53068427  0.83011000     0.38200
H2014       H  0.73899450  0.41854771  0.88524072     0.30100
H2015       H  0.62601953  0.43294053  0.89297276     0.30100
H2016       H  0.66937198  0.42702563  0.75154117     0.30400
Zr2017     Zr  0.78566909  0.57361583  0.96804899     2.17500
O2018       O  0.81235331  0.57963442  0.01842364    -0.52000
O2019       O  0.75619251  0.57241685  0.01522897    -0.75200
O2020       O  0.78494116  0.60981266  0.98961759    -0.81900
O2021       O  0.77519005  0.51211393  0.96854019    -0.83700
O2022       O  0.76837122  0.62892169  0.94123733    -0.79300
O2023       O  0.79220729  0.53736555  0.00147073    -0.90900
O2024       O  0.73322088  0.59032298  0.97950111    -0.76900
O2025       O  0.75913236  0.59490589  0.93573884    -0.86400
O2026       O  0.75943237  0.54914594  0.95126446    -0.86100
O2027       O  0.79949913  0.59152626  0.90764679    -0.72800
O2028       O  0.80712036  0.55589973  0.92256500    -0.85000
Zr2029     Zr  0.76473859  0.55823894  0.82090073     2.26400
Zr2030     Zr  0.77147967  0.61045720  0.87389391     2.06300
Zr2031     Zr  0.78489727  0.52974255  0.91274294     2.10000
Zr2032     Zr  0.73390603  0.57126636  0.91811484     1.78800
O2033       O  0.82111606  0.52838708  0.93469068    -0.93800
O2034       O  0.71356051  0.60099761  0.89324385    -0.41600
O2035       O  0.76662736  0.56011738  0.89045451    -0.78200
O2036       O  0.74542578  0.58493810  0.85588368    -0.96900
O2037       O  0.78886350  0.58615592  0.82861754    -0.90200
O2038       O  0.79444312  0.54100791  0.85114809    -0.93100
C2039       C  0.73774398  0.57976621  0.01018576     1.00700
C2040       C  0.78619165  0.51777951  0.99713761     1.13600
C2041       C  0.77505391  0.62625999  0.97794949     1.04400
O2042       O  0.75544240  0.64487364  0.86674757    -0.95200
O2043       O  0.75147811  0.61486897  0.80788488    -0.91000
O2044       O  0.76647491  0.58820547  0.77553094    -0.84100
C2045       C  0.75310567  0.60307241  0.77604494     1.11000
O2046       O  0.84879245  0.58536728  0.88618926    -0.97200
Zr2047     Zr  0.81767836  0.56884318  0.85986249     1.88900
O2048       O  0.78816564  0.53475568  0.78257418    -0.73800
O2049       O  0.80180906  0.63093606  0.85514018    -0.53100
O2050       O  0.82744968  0.59608429  0.81240046    -0.97800
O2051       O  0.84984938  0.54852801  0.86458274    -0.55000
O2052       O  0.82091640  0.54482996  0.79962962    -0.74400
C2053       C  0.80815758  0.53288565  0.78007263     0.98000
O2054       O  0.72972420  0.55042776  0.79474444    -0.63200
O2055       O  0.79367614  0.49283303  0.90238225    -0.58000
O2056       O  0.74495224  0.53548726  0.86452026    -0.94700
O2057       O  0.76952257  0.51250141  0.85943861    -0.93100
O2058       O  0.70077588  0.56600465  0.95259777    -0.93400
O2059       O  0.71057472  0.54483726  0.89454147    -0.92200
C2060       C  0.75254718  0.51804464  0.87455746     1.16800
H2061       H  0.75325302  0.54183692  0.97368392     0.32800
H2062       H  0.73360895  0.58930147  0.84020389     0.43600
H2063       H  0.80114194  0.52765195  0.84638252     0.37200
H2064       H  0.80932596  0.60177332  0.91693703     0.33600
H2065       H  0.69908322  0.59590162  0.89137588     0.25400
H2066       H  0.79681199  0.64036121  0.83359096     0.31400
H2067       H  0.83924145  0.58993764  0.79692503     0.37300
H2068       H  0.69484166  0.58011525  0.95752242     0.31700
H2069       H  0.80539792  0.49271579  0.88282997     0.30600
H2070       H  0.82657999  0.51443414  0.92693642     0.32300
H2071       H  0.85697960  0.55058502  0.83834771     0.31300
H2072       H  0.70720783  0.55032566  0.86770270     0.35300
H2073       H  0.72351773  0.53824336  0.80831935     0.28000
H2074       H  0.80485247  0.58569345  0.04188636     0.32200
H2075       H  0.84518005  0.60041156  0.88822156     0.35100
H2076       H  0.79989614  0.48784449  0.92783918     0.27700
H2077       H  0.72108901  0.56241629  0.80368759     0.40600
H2078       H  0.74059274  0.64269210  0.87372381     0.30600
H2079       H  0.71327812  0.61116773  0.91570531     0.38200
H2080       H  0.84536521  0.53376044  0.86408503     0.30100
H2081       H  0.80404292  0.64024483  0.87850752     0.30100
H2082       H  0.82083995  0.59122844  0.00758717     0.30400
Zr2083     Zr  0.68451439  0.53254954  0.21555252     2.17500
O2084       O  0.68053791  0.55316048  0.27686227    -0.52000
O2085       O  0.67686768  0.50061016  0.25504797    -0.75200
O2086       O  0.64916056  0.54061772  0.23403844    -0.81900
O2087       O  0.74616545  0.51924794  0.20810740    -0.83700
O2088       O  0.62959362  0.52542797  0.18545455    -0.79300
O2089       O  0.72183171  0.53503521  0.24659478    -0.90900
O2090       O  0.66399652  0.47730399  0.21158018    -0.76900
O2091       O  0.66175451  0.51056199  0.17698401    -0.86400
O2092       O  0.70666044  0.50633276  0.18953818    -0.86100
O2093       O  0.66698386  0.55198682  0.16083341    -0.72800
O2094       O  0.70325935  0.55444378  0.17445753    -0.85000
Zr2095     Zr  0.70172846  0.52168601  0.06363488     2.26400
Zr2096     Zr  0.64814554  0.52773930  0.11828050     2.06300
Zr2097     Zr  0.72809776  0.53158789  0.15541956     2.10000
Zr2098     Zr  0.68312717  0.48462580  0.15170397     1.78800
O2099       O  0.72386146  0.56539979  0.18897005    -0.93800
O2100       O  0.64692180  0.48123694  0.12944251    -0.41600
O2101       O  0.70812611  0.50646053  0.12346261    -0.78200
O2102       O  0.67350149  0.50196973  0.09321726    -0.96900
O2103       O  0.67427203  0.54629766  0.07987857    -0.90200
O2104       O  0.71703926  0.54913481  0.10058925    -0.93100
C2105       C  0.66873687  0.48276868  0.24676182     1.00700
C2106       C  0.74123429  0.52882295  0.23918845     1.13600
C2107       C  0.63224874  0.53227839  0.22203276     1.04400
O2108       O  0.61282039  0.51604477  0.10463782    -0.95200
O2109       O  0.64192021  0.50798744  0.05316604    -0.91000
O2110       O  0.66893120  0.52301333  0.02433323    -0.84100
C2111       C  0.65429118  0.50962028  0.02241279     1.11000
O2112       O  0.67258128  0.60108524  0.15532021    -0.97200
Zr2113     Zr  0.69007783  0.57255721  0.11970813     1.88900
O2114       O  0.71870283  0.55086938  0.02931936    -0.73800
O2115       O  0.63055343  0.56030428  0.10061188    -0.53100
O2116       O  0.66394331  0.58831335  0.07625619    -0.97800
O2117       O  0.71315476  0.60101299  0.13850205    -0.45400
O2118       O  0.71141961  0.58186949  0.06052809    -0.74400
C2119       C  0.72085108  0.57074153  0.03358079     0.98000
O2120       O  0.72292884  0.50413900  0.01233448    -0.63200
O2121       O  0.76390742  0.54500707  0.15524777    -0.58000
O2122       O  0.72914797  0.50149745  0.10154680    -0.94700
O2123       O  0.75244203  0.52597469  0.10191803    -0.93100
O2124       O  0.68892330  0.44952890  0.18021754    -0.93400
O2125       O  0.68732370  0.45306019  0.11143468    -0.92200
C2126       C  0.74727065  0.50786713  0.11194156     1.16800
H2127       H  0.71397268  0.49824987  0.20921012     0.32800
H2128       H  0.67027907  0.49026645  0.07611540     0.43600
H2129       H  0.73031654  0.55541208  0.09466112     0.37200
H2130       H  0.65694933  0.56160695  0.17248894     0.33600
H2131       H  0.64516553  0.46619435  0.12356807     0.25400
H2132       H  0.63007286  0.56014903  0.07084316     0.31400
H2133       H  0.66814139  0.58424807  0.04857514     0.37300
H2134       H  0.67513067  0.44268983  0.18129181     0.31700
H2135       H  0.76324107  0.55845851  0.14052376     0.30600
H2136       H  0.73795983  0.57144420  0.19136640     0.32300
H2137       H  0.70998085  0.61238463  0.11921146     0.31300
H2138       H  0.67548555  0.45301066  0.09252633     0.35300
H2139       H  0.73269270  0.51516451  0.00379538     0.28000
H2140       H  0.68207300  0.56783780  0.26798589     0.32200
H2141       H  0.67320100  0.59708952  0.18406936     0.35100
H2142       H  0.76732440  0.54912346  0.18310920     0.27700
H2143       H  0.73246515  0.49463361  0.02661536     0.40600
H2144       H  0.60716875  0.51082792  0.13049083     0.30600
H2145       H  0.63780338  0.48363647  0.15318656     0.38200
H2146       H  0.72729591  0.59613847  0.13062923     0.30100
H2147       H  0.61590337  0.55836151  0.10924878     0.30100
H2148       H  0.69312286  0.55021591  0.29296573     0.30400
Zr2149     Zr  0.70241804  0.44946998  0.46909913     2.17500
O2150       O  0.68007063  0.44339829  0.52736641    -0.52000
O2151       O  0.73530091  0.45056877  0.50793966    -0.75200
O2152       O  0.70643176  0.41353653  0.49150748    -0.81900
O2153       O  0.70554769  0.51176154  0.45835169    -0.83700
O2154       O  0.71905514  0.39302029  0.44000699    -0.79300
O2155       O  0.69597490  0.48643760  0.50187691    -0.90900
O2156       O  0.75783234  0.43483494  0.46640960    -0.76900
O2157       O  0.72812501  0.42926540  0.43189952    -0.86400
O2158       O  0.72405239  0.47572290  0.44317824    -0.86100
O2159       O  0.68762567  0.42830147  0.41372886    -0.72800
O2160       O  0.67790093  0.46397959  0.42609110    -0.85000
Zr2161     Zr  0.71435198  0.46078963  0.31700651     2.26400
Zr2162     Zr  0.71506463  0.41095595  0.37356856     2.06300
Zr2163     Zr  0.69605029  0.49177891  0.40535441     2.10000
Zr2164     Zr  0.74964906  0.45479231  0.40755899     1.78800
O2165       O  0.66252458  0.49572126  0.43987182    -0.93800
O2166       O  0.77071893  0.42373240  0.39128708    -0.41600
O2167       O  0.71761282  0.46541886  0.38272840    -0.78200
O2168       O  0.73806840  0.43773300  0.34972062    -0.96900
O2169       O  0.69256047  0.43199469  0.33288111    -0.90200
O2170       O  0.68443555  0.47649360  0.34752807    -0.93100
C2171       C  0.75342041  0.44250319  0.50038871     1.00700
C2172       C  0.69932468  0.50627673  0.49249628     1.13600
C2173       C  0.71457081  0.39645853  0.47770376     1.04400
O2174       O  0.73367089  0.37763600  0.36946575    -0.95200
O2175       O  0.73476066  0.40612255  0.30537823    -0.91000
O2176       O  0.73167540  0.43683477  0.27094671    -0.84100
C2177       C  0.73849404  0.41794052  0.27368916     1.11000
O2178       O  0.63691294  0.42956121  0.40788488    -0.97200
Zr2179     Zr  0.66407104  0.44742524  0.36996283     1.88900
O2180       O  0.68432134  0.45373585  0.27637262    -0.73800
O2181       O  0.68585273  0.38911196  0.35473756    -0.53100
O2182       O  0.65109311  0.41755287  0.33264727    -0.97800
O2183       O  0.63273314  0.46869022  0.38085364    -0.55000
O2184       O  0.65595280  0.46583281  0.30661800    -0.74400
C2185       C  0.66872887  0.46602937  0.27682517     0.98000
O2186       O  0.71880243  0.49102484  0.27592393    -0.63200
O2187       O  0.67716842  0.52196603  0.37771670    -0.58000
O2188       O  0.73735346  0.48532678  0.35401931    -0.94700
O2189       O  0.71649980  0.51204536  0.36339368    -0.93100
O2190       O  0.77756137  0.47303277  0.44068360    -0.93400
O2191       O  0.77255967  0.47187974  0.35941610    -0.92200
C2192       C  0.73392107  0.50361042  0.36853008     1.16800
H2193       H  0.73065511  0.48396738  0.46365576     0.32800
H2194       H  0.75063626  0.43440894  0.33499598     0.43600
H2195       H  0.67859275  0.48831332  0.33343396     0.37200
H2196       H  0.67952905  0.41737417  0.42618927     0.33600
H2197       H  0.78206982  0.42314508  0.41123730     0.25400
H2198       H  0.69055507  0.38188530  0.32987968     0.31400
H2199       H  0.65313478  0.42126004  0.30396804     0.37300
H2200       H  0.78581580  0.46233942  0.45510525     0.31700
H2201       H  0.68066276  0.52319698  0.34875251     0.30600
H2202       H  0.66157855  0.51058046  0.44813013     0.32300
H2203       H  0.63576458  0.48233317  0.36811459     0.31300
H2204       H  0.76816153  0.46652399  0.33294119     0.35300
H2205       H  0.70954009  0.50150757  0.28878901     0.28000
H2206       H  0.67090661  0.45590216  0.52901683     0.32200
H2207       H  0.63796782  0.43516176  0.43558327     0.35100
H2208       H  0.68347532  0.53437135  0.39043485     0.27700
H2209       H  0.73261453  0.49573377  0.28393490     0.40600
H2210       H  0.72273861  0.36686904  0.36769939     0.30600
H2211       H  0.76185589  0.41160282  0.39797575     0.38200
H2212       H  0.63231476  0.47177628  0.41002990     0.30100
H2213       H  0.68539272  0.37801973  0.37548111     0.30100
H2214       H  0.68950595  0.44473697  0.55065631     0.30400
Zr2215     Zr  0.80990361  0.46309033  0.72061706     2.17500
O2216       O  0.81412878  0.44023901  0.77881329    -0.52000
O2217       O  0.80745368  0.49626246  0.76193398    -0.75200
O2218       O  0.84617127  0.45963097  0.74109920    -0.81900
O2219       O  0.75257906  0.47452760  0.72566010    -0.83700
O2220       O  0.86793084  0.47018602  0.69031443    -0.79300
O2221       O  0.77471756  0.45147086  0.75187185    -0.90900
O2222       O  0.82933922  0.51760520  0.73095584    -0.76900
O2223       O  0.83433231  0.48591616  0.68659009    -0.86400
O2224       O  0.78761376  0.49149435  0.70189046    -0.86100
O2225       O  0.82622452  0.44671580  0.65978270    -0.72800
O2226       O  0.79065074  0.44365288  0.67437436    -0.85000
Zr2227     Zr  0.79804285  0.48579882  0.57386210     2.26400
Zr2228     Zr  0.84866152  0.47165557  0.62459497     2.06300
Zr2229     Zr  0.76646762  0.46827037  0.66365650     2.10000
Zr2230     Zr  0.81312676  0.51354428  0.66866363     1.78800
O2231       O  0.75883163  0.43132548  0.67398310    -0.93800
O2232       O  0.84764613  0.52889858  0.67377397    -0.41600
O2233       O  0.79949430  0.48163610  0.64297926    -0.78200
O2234       O  0.82678218  0.50113877  0.60768608    -0.96900
O2235       O  0.82273077  0.45797927  0.57991458    -0.90200
O2236       O  0.77685071  0.45816907  0.60157840    -0.93100
C2237       C  0.81631937  0.51433525  0.75838991     1.00700
C2238       C  0.75588541  0.45937994  0.74854361     1.13600
C2239       C  0.86430235  0.46469532  0.72750542     1.04400
O2240       O  0.88464936  0.48298507  0.61771141    -0.95200
O2241       O  0.85437207  0.49172488  0.55784091    -0.91000
O2242       O  0.82674313  0.47823991  0.52888398    -0.84100
C2243       C  0.84191364  0.49080926  0.52713138     1.11000
O2244       O  0.81618718  0.39876469  0.63712756    -0.97200
Zr2245     Zr  0.80219536  0.43158502  0.61121417     1.88900
O2246       O  0.77431859  0.46629274  0.53241878    -0.73800
O2247       O  0.86413123  0.43858990  0.60291134    -0.53100
O2248       O  0.82888756  0.41840389  0.56514906    -0.97800
O2249       O  0.77860114  0.40193438  0.61392250    -0.55000
O2250       O  0.77995892  0.43210598  0.54829872    -0.74400
C2251       C  0.77080653  0.44679235  0.52755530     0.98000
O2252       O  0.79378632  0.52091053  0.54546259    -0.63200
O2253       O  0.72883349  0.46801169  0.65364504    -0.58000
O2254       O  0.77911028  0.51032878  0.61700804    -0.94700
O2255       O  0.75381390  0.48874841  0.61219231    -0.93100
O2256       O  0.79230059  0.54298110  0.68908221    -0.93400
O2257       O  0.80717434  0.54081308  0.62019864    -0.92200
C2258       C  0.76086448  0.50517345  0.62665187     1.16800
H2259       H  0.77937574  0.49908546  0.72158389     0.32800
H2260       H  0.83295699  0.51288822  0.59403496     0.43600
H2261       H  0.76302137  0.45377159  0.59423804     0.37200
H2262       H  0.83511977  0.43551027  0.66919727     0.33600
H2263       H  0.85531613  0.52428719  0.64934594     0.25400
H2264       H  0.87054764  0.44164328  0.57639238     0.31400
H2265       H  0.82198035  0.40703857  0.55020851     0.37300
H2266       H  0.80238219  0.55258604  0.70160553     0.31700
H2267       H  0.72550739  0.45368930  0.64460501     0.30600
H2268       H  0.74521247  0.43086764  0.68809486     0.32300
H2269       H  0.78146582  0.39407094  0.58875411     0.31300
H2270       H  0.82096974  0.54723007  0.61562441     0.35300
H2271       H  0.78152913  0.52827181  0.55699727     0.28000
H2272       H  0.82060007  0.44902473  0.79976065     0.32200
H2273       H  0.81506558  0.40012156  0.66675414     0.35100
H2274       H  0.72215646  0.46932991  0.68044966     0.27700
H2275       H  0.80613213  0.52899891  0.55319559     0.40600
H2276       H  0.89203450  0.47137207  0.60382211     0.30600
H2277       H  0.84542808  0.54410687  0.66998477     0.38200
H2278       H  0.76456401  0.40805588  0.60985801     0.30100
H2279       H  0.87605265  0.43632286  0.62116804     0.30100
H2280       H  0.82497250  0.42984630  0.77115316     0.30400
C2281       C  0.73506193  0.84463820  0.40806432     0.79600
N2282       N  0.73929523  0.82396842  0.41285542    -0.78700
C2283       C  0.74711598  0.81220772  0.38223993     0.82000
N2284       N  0.75106655  0.82148379  0.34626114    -0.78600
C2285       C  0.74713899  0.84215004  0.34027085     0.82100
N2286       N  0.73862336  0.85378366  0.37116917    -0.80400
C2287       C  0.76934615  0.84089256  0.10289599     0.79600
N2288       N  0.76727004  0.85063471  0.13971306    -0.78700
C2289       C  0.75901709  0.83992261  0.17181611     0.82000
N2290       N  0.75349506  0.81967842  0.16685925    -0.78600
C2291       C  0.75589451  0.80975688  0.13102724     0.82100
N2292       N  0.76368808  0.82054087  0.09931578    -0.80400
C2293       C  0.73473600  0.68950469  0.41703032     0.79600
N2294       N  0.73943485  0.71012508  0.42194686    -0.78700
C2295       C  0.74664046  0.72166738  0.39032539     0.82000
N2296       N  0.74939412  0.71228310  0.35406402    -0.78600
C2297       C  0.74484325  0.69190645  0.34840009     0.82100
N2298       N  0.73710981  0.68055810  0.37977502    -0.80400
C2299       C  0.75601072  0.68550128  0.10935502     0.79600
N2300       N  0.75383906  0.70659716  0.10380967    -0.78700
C2301       C  0.74943770  0.71950624  0.13555922     0.82000
N2302       N  0.74743411  0.71113832  0.17277673    -0.78600
C2303       C  0.74961092  0.69041081  0.17920706     0.82100
N2304       N  0.75405069  0.67756425  0.14754100    -0.80400
C2305       C  0.74557760  0.68386088  0.30656769    -0.06100
C2306       C  0.76491862  0.68136107  0.28688447    -0.33500
C2307       C  0.76624768  0.68079391  0.24458194     0.35700
C2308       C  0.74810769  0.68293969  0.22131475    -0.06400
C2309       C  0.72871840  0.68411134  0.24108998    -0.33400
C2310       C  0.72736308  0.68443592  0.28331677     0.35600
H2311       H  0.77913981  0.68149288  0.30422255     0.16000
O2312       O  0.78547322  0.68007097  0.22627962    -0.60900
H2313       H  0.71468667  0.68654993  0.22373712     0.16000
O2314       O  0.70841478  0.68812402  0.30142890    -0.61000
H2315       H  0.70124561  0.67446252  0.30124774     0.43000
H2316       H  0.78925675  0.69486866  0.22148158     0.43000
C2317       C  0.75147481  0.78696007  0.12806696    -0.06100
C2318       C  0.74136342  0.77711006  0.16038793    -0.33500
C2319       C  0.73973027  0.75537304  0.16223299     0.35700
C2320       C  0.74820419  0.74270149  0.13110527    -0.06400
C2321       C  0.75691693  0.75258873  0.09724226    -0.33400
C2322       C  0.75846190  0.77447667  0.09538142     0.35600
H2323       H  0.73516805  0.78622403  0.18530664     0.16000
O2324       O  0.72978489  0.74675108  0.19487609    -0.60900
H2325       H  0.76332786  0.74333032  0.07273689     0.16000
O2326       O  0.76782489  0.78327476  0.06234554    -0.61000
H2327       H  0.75622599  0.78702366  0.04409793     0.43000
H2328       H  0.73987697  0.74758476  0.21727392     0.43000
C2329       C  0.75594599  0.84906641  0.21296152    -0.06100
C2330       C  0.77303019  0.85137330  0.23877874    -0.33500
C2331       C  0.77022826  0.85193782  0.28108563     0.35700
C2332       C  0.75008263  0.85032037  0.29836539    -0.06400
C2333       C  0.73297835  0.85016132  0.27232889    -0.33400
C2334       C  0.73577180  0.84939268  0.23023984     0.35600
H2335       H  0.78869716  0.85070767  0.22645780     0.16000
O2336       O  0.78740713  0.85200693  0.30536034    -0.60900
H2337       H  0.71741958  0.84844862  0.28468475     0.16000
O2338       O  0.71870216  0.84656668  0.20637241    -0.61000
H2339       H  0.71312822  0.86082608  0.20139484     0.43000
H2340       H  0.79288574  0.86643726  0.30371482     0.43000
C2341       C  0.74946097  0.78913540  0.38717608    -0.06100
C2342       C  0.73933978  0.77899038  0.41938093    -0.33500
C2343       C  0.73933025  0.75710182  0.42252106     0.35700
C2344       C  0.74936214  0.74477418  0.39284280    -0.06400
C2345       C  0.76044708  0.75499395  0.36194564    -0.33400
C2346       C  0.76066271  0.77681464  0.35906059     0.35600
H2347       H  0.73067903  0.78797916  0.44161401     0.16000
O2348       O  0.72828865  0.74802448  0.45326146    -0.60900
H2349       H  0.76863757  0.74601468  0.33903903     0.16000
O2350       O  0.77147871  0.78580008  0.32789744    -0.61000
H2351       H  0.78529262  0.78924250  0.33915461     0.43000
H2352       H  0.73760609  0.74855898  0.47689574     0.43000
C2353       C  0.77011430  0.64198890  0.01067646    -0.06100
C2354       C  0.76585479  0.66316924  0.00233797    -0.33500
C2355       C  0.76152705  0.67765816  0.03367691     0.35700
C2356       C  0.76080838  0.67105658  0.07449448    -0.06400
C2357       C  0.76475697  0.64985983  0.08242335    -0.33400
C2358       C  0.76931427  0.63556530  0.05159732     0.35600
H2359       H  0.76618640  0.66862331  0.97149389     0.16000
O2360       O  0.75780651  0.69814523  0.02376926    -0.60900
H2361       H  0.76435420  0.64406156  0.11303458     0.16000
O2362       O  0.77282592  0.61512709  0.06227233    -0.61000
H2363       H  0.75880015  0.60900966  0.06591721     0.43000
H2364       H  0.77175110  0.70467319  0.02242946     0.43000
C2365       C  0.71502779  0.64948414  0.51583458    -0.06100
C2366       C  0.70566037  0.64824991  0.47755301    -0.33500
C2367       C  0.71127725  0.66169631  0.44601382     0.35700
C2368       C  0.72662095  0.67696052  0.45175588    -0.06400
C2369       C  0.73453986  0.67967177  0.49087803    -0.33400
C2370       C  0.72894368  0.66606505  0.52268307     0.35600
H2371       H  0.69442420  0.63615388  0.47131475     0.16000
O2372       O  0.70185911  0.65950157  0.40935682    -0.60900
H2373       H  0.74591651  0.69172091  0.49640998     0.16000
O2374       O  0.73779428  0.66864372  0.55975952    -0.61000
H2375       H  0.75238732  0.66365209  0.55668681     0.43000
H2376       H  0.68907065  0.66828434  0.41103467     0.43000
C2377       C  0.71070692  0.87761747  0.51386259    -0.06100
C2378       C  0.70132746  0.87999007  0.47553996    -0.33500
C2379       C  0.70917582  0.86979178  0.44095909     0.35700
C2380       C  0.72653774  0.85637376  0.44373131    -0.06400
C2381       C  0.73496633  0.85268427  0.48223293    -0.33400
C2382       C  0.72754479  0.86340244  0.51674677     0.35600
H2383       H  0.68832018  0.89070063  0.47178576     0.16000
O2384       O  0.69973293  0.87313097  0.40461497    -0.60900
H2385       H  0.74803301  0.84199414  0.48537675     0.16000
O2386       O  0.73764549  0.86065475  0.55256202    -0.61000
H2387       H  0.75026898  0.86943639  0.55056467     0.43000
H2388       H  0.68845861  0.86265639  0.40332531     0.43000
C2389       C  0.79317570  0.87065263  0.99361198    -0.06100
C2390       C  0.80049872  0.87641373  0.03206783    -0.33500
C2391       C  0.79262518  0.86747978  0.06772341     0.35700
C2392       C  0.77758097  0.85167580  0.06596785    -0.06400
C2393       C  0.77099857  0.84505899  0.02756936    -0.33400
C2394       C  0.77842444  0.85443099  0.99186896     0.35600
H2395       H  0.81210686  0.88839161  0.03490862     0.16000
O2396       O  0.79974238  0.87445773  0.10408845    -0.60900
H2397       H  0.75953377  0.83280849  0.02508642     0.16000
O2398       O  0.77039072  0.84820324  0.95569743    -0.61000
H2399       H  0.77619306  0.83399519  0.95084354     0.43000
H2400       H  0.81294307  0.86668281  0.10862428     0.43000
C2401       C  0.89322442  0.02766411  0.83182740    -0.06100
C2402       C  0.89649429  0.02056994  0.79195013    -0.33500
C2403       C  0.88465118  0.02835800  0.75941744     0.35700
C2404       C  0.86949283  0.04419360  0.76570717    -0.06400
C2405       C  0.86694326  0.05182367  0.80554319    -0.33400
C2406       C  0.87814796  0.04343451  0.83816980     0.35600
H2407       H  0.90790745  0.00834961  0.78608443     0.16000
O2408       O  0.88706043  0.01924890  0.72230990    -0.60900
H2409       H  0.85541632  0.06385410  0.81201545     0.16000
O2410       O  0.87441222  0.05109954  0.87610649    -0.61000
H2411       H  0.86295760  0.04243651  0.88708459     0.43000
H2412       H  0.89782018  0.02764913  0.70835947     0.43000
C2413       C  0.90515560  0.00414714  0.97580380    -0.06100
C2414       C  0.90874917  0.98416829  0.99232449    -0.33500
C2415       C  0.90919309  0.98087146  0.03425719     0.35700
C2416       C  0.90614271  0.99767720  0.06120476    -0.06400
C2417       C  0.90131731  0.01747022  0.04484915    -0.33400
C2418       C  0.90071295  0.02073857  0.00266845     0.35600
H2419       H  0.91282540  0.97127579  0.97253019     0.16000
O2420       O  0.91516915  0.96161664  0.04845528    -0.60900
H2421       H  0.89961284  0.03080194  0.06476106     0.16000
O2422       O  0.89765414  0.04058461  0.98815306    -0.61000
H2423       H  0.91161962  0.04709296  0.98814760     0.43000
H2424       H  0.90251663  0.95571553  0.06125206     0.43000
C2425       C  0.90080437  0.97707322  0.20858120    -0.06100
C2426       C  0.91037413  0.97728986  0.24694043    -0.33500
C2427       C  0.89991216  0.97044957  0.28213818     0.35700
C2428       C  0.87953622  0.96256224  0.27993458    -0.06400
C2429       C  0.87009306  0.96228208  0.24161453    -0.33400
C2430       C  0.88040632  0.96919362  0.20655063     0.35600
H2431       H  0.92605829  0.98312943  0.25003412     0.16000
O2432       O  0.90991542  0.97137073  0.31837755    -0.60900
H2433       H  0.85420612  0.95722068  0.23864241     0.16000
O2434       O  0.87013291  0.96835157  0.17057783    -0.61000
H2435       H  0.87271565  0.95400636  0.16023222     0.43000
H2436       H  0.90667255  0.98549903  0.32916305     0.43000
C2437       C  0.00701394  0.00405786  0.87628878    -0.06100
C2438       C  0.99584871  0.01799949  0.85167839    -0.33500
C2439       C  0.97395372  0.01896659  0.85331613     0.35700
C2440       C  0.96278908  0.00545839  0.87910959    -0.06400
C2441       C  0.97396128  0.99062023  0.90160730    -0.33400
C2442       C  0.99577428  0.98993245  0.90059650     0.35600
H2443       H  0.00412502  0.02913801  0.83308718     0.16000
O2444       O  0.96379370  0.03410649  0.83160847    -0.60900
H2445       H  0.96576700  0.97989367  0.92123424     0.16000
O2446       O  0.00599070  0.97541358  0.92376105    -0.61000
H2447       H  0.00538354  0.98101052  0.95159874     0.43000
H2448       H  0.96261502  0.04630104  0.84997235     0.43000
C2449       C  0.06910227  0.99844596  0.04998848    -0.06100
C2450       C  0.06865159  0.98098691  0.02437046    -0.33500
C2451       C  0.06767837  0.98346930  0.98232670     0.35700
C2452       C  0.06713521  0.00361577  0.96512719    -0.06400
C2453       C  0.06933651  0.02100212  0.99051114    -0.33400
C2454       C  0.07021317  0.01851920  0.03260832     0.35600
H2455       H  0.06730174  0.96545722  0.03707863     0.16000
O2456       O  0.06544670  0.96614973  0.95847236    -0.60900
H2457       H  0.06864413  0.03662525  0.97798835     0.16000
O2458       O  0.07084364  0.03589785  0.05675407    -0.61000
H2459       H  0.05621150  0.04089252  0.05893412     0.43000
H2460       H  0.07983219  0.96206865  0.95047647     0.43000
C2461       C  0.96723098  0.00004700  0.14736226    -0.06100
C2462       C  0.97865461  0.98886449  0.17637538    -0.33500
C2463       C  0.00053625  0.98873361  0.17581990     0.35700
C2464       C  0.01144272  0.99990269  0.14584815    -0.06400
C2465       C  0.99998988  0.01234465  0.11889369    -0.33400
C2466       C  0.97819438  0.01247148  0.11937818     0.35600
H2467       H  0.97065851  0.97926274  0.19833381     0.16000
O2468       O  0.01095281  0.97629935  0.20270945    -0.60900
H2469       H  0.00795599  0.02155346  0.09625301     0.16000
O2470       O  0.96779520  0.02477714  0.09216728    -0.61000
H2471       H  0.96866615  0.01709416  0.06625736     0.43000
H2472       H  0.01386882  0.98551355  0.22596421     0.43000
C2473       C  0.60824384  0.04251387  0.78860330    -0.06100
C2474       C  0.61697595  0.04465293  0.74956130    -0.33500
C2475       C  0.60714042  0.03687496  0.71481602     0.35700
C2476       C  0.58783549  0.02670725  0.71796650    -0.06400
C2477       C  0.57914621  0.02440964  0.75709891    -0.33400
C2478       C  0.58921306  0.03184192  0.79188461     0.35600
H2479       H  0.63194056  0.05193982  0.74568278     0.16000
O2480       O  0.61675010  0.03908770  0.67806117    -0.60900
H2481       H  0.56443174  0.01649968  0.76109164     0.16000
O2482       O  0.58010290  0.02874574  0.82884529    -0.61000
H2483       H  0.58399616  0.01425510  0.83652794     0.43000
H2484       H  0.61638482  0.05428820  0.67220907     0.43000
C2485       C  0.58105564  0.00176749  0.57207633    -0.06100
C2486       C  0.57566232  0.98218344  0.55581728    -0.33500
C2487       C  0.57610986  0.97829334  0.51405572     0.35700
C2488       C  0.58187551  0.99408492  0.48664636    -0.06400
C2489       C  0.58864634  0.01328358  0.50282475    -0.33400
C2490       C  0.58848273  0.01708440  0.54504757     0.35600
H2491       H  0.56946015  0.97022817  0.57554021     0.16000
O2492       O  0.56857454  0.95965826  0.50012456    -0.60900
H2493       H  0.59255672  0.02595017  0.48259539     0.16000
O2494       O  0.59328828  0.03659912  0.55904842    -0.61000
H2495       H  0.60872385  0.03696598  0.55935008     0.43000
H2496       H  0.58090010  0.95198627  0.48936088     0.43000
C2497       C  0.59108435  0.97465745  0.33900984    -0.06100
C2498       C  0.60483909  0.95765422  0.34322152    -0.33500
C2499       C  0.61573381  0.94924108  0.30977284     0.35700
C2500       C  0.61398085  0.95839398  0.27091748    -0.06400
C2501       C  0.59928179  0.97463268  0.26635407    -0.33400
C2502       C  0.58776004  0.98249900  0.29960180     0.35600
H2503       H  0.60697556  0.95061545  0.37256089     0.16000
O2504       O  0.62868847  0.93238782  0.31579335    -0.60900
H2505       H  0.59754548  0.98216451  0.23736927     0.16000
O2506       O  0.57420230  0.99886089  0.29354230    -0.61000
H2507       H  0.56131731  0.99240811  0.28317432     0.43000
H2508       H  0.61951897  0.92000567  0.31466839     0.43000
C2509       C  0.47741109  0.99779240  0.66016016    -0.06100
C2510       C  0.48623537  0.01265893  0.68605110    -0.33500
C2511       C  0.50793128  0.01538369  0.68724189     0.35700
C2512       C  0.52106178  0.00306463  0.66232900    -0.06400
C2513       C  0.51224710  0.98712675  0.63919266    -0.33400
C2514       C  0.49072830  0.98442528  0.63795566     0.35600
H2515       H  0.47629083  0.02298880  0.70368518     0.16000
O2516       O  0.51596105  0.03071835  0.71131281    -0.60900
H2517       H  0.52207859  0.97699014  0.62090670     0.16000
O2518       O  0.48285389  0.96862231  0.61481395    -0.61000
H2519       H  0.48398313  0.97360374  0.58662221     0.43000
H2520       H  0.51485716  0.04377478  0.69536407     0.43000
C2521       C  0.41934954  0.98333072  0.48003927    -0.06100
C2522       C  0.41162521  0.00195958  0.49731048    -0.33500
C2523       C  0.41214225  0.00516958  0.53936898     0.35700
C2524       C  0.42065799  0.98970729  0.56475390    -0.06400
C2525       C  0.42716570  0.97062757  0.54757506    -0.33400
C2526       C  0.42636477  0.96732507  0.50583843     0.35600
H2527       H  0.40682878  0.01472900  0.47798690     0.16000
O2528       O  0.40599849  0.02412100  0.55497300    -0.60900
H2529       H  0.43407714  0.95865310  0.56642067     0.16000
O2530       O  0.43445124  0.94912392  0.49015310    -0.61000
H2531       H  0.42222568  0.94010526  0.48542315     0.43000
H2532       H  0.41734031  0.03393490  0.54797153     0.43000
C2533       C  0.47821080  0.99103435  0.39008272    -0.06100
C2534       C  0.48779181  0.00137462  0.42246946    -0.33500
C2535       C  0.50943402  0.00300555  0.42524289     0.35700
C2536       C  0.52242902  0.99440792  0.39495217    -0.06400
C2537       C  0.51289463  0.98533535  0.36105555    -0.33400
C2538       C  0.49105814  0.98347719  0.35860657     0.35600
H2539       H  0.47847031  0.00771107  0.44698413     0.16000
O2540       O  0.51761732  0.01217618  0.45888332    -0.60900
H2541       H  0.52239727  0.97861581  0.33719833     0.16000
O2542       O  0.48269605  0.97281249  0.32691686    -0.61000
H2543       H  0.48020481  0.98354026  0.30594010     0.43000
H2544       H  0.51681830  0.02743365  0.45381232     0.43000
C2545       C  0.72662627  0.16647060  0.56835907    -0.06100
C2546       C  0.70867945  0.15427053  0.57170474    -0.33500
C2547       C  0.70050259  0.14361794  0.53806256     0.35700
C2548       C  0.71054916  0.14465681  0.49977697    -0.06400
C2549       C  0.72834684  0.15727202  0.49655490    -0.33400
C2550       C  0.73613575  0.16825823  0.52999359     0.35600
H2551       H  0.70062153  0.15334939  0.60041583     0.16000
O2552       O  0.68222094  0.13282950  0.54258216    -0.60900
H2553       H  0.73668658  0.15824253  0.46816850     0.16000
O2554       O  0.75369157  0.18007875  0.52514675    -0.61000
H2555       H  0.74864097  0.19380273  0.51513211     0.43000
H2556       H  0.68400950  0.12373894  0.56650683     0.43000
C2557       C  0.75750607  0.17300196  0.79792727    -0.06100
C2558       C  0.73709349  0.17115160  0.78305714    -0.33500
C2559       C  0.73297108  0.17153140  0.74129572     0.35700
C2560       C  0.74929866  0.17420822  0.71319670    -0.06400
C2561       C  0.76979382  0.17503712  0.72797174    -0.33400
C2562       C  0.77394797  0.17430268  0.76963987     0.35600
H2563       H  0.72409172  0.17099247  0.80403154     0.16000
O2564       O  0.71271090  0.17171048  0.72858917    -0.60900
H2565       H  0.78256975  0.17781413  0.70720649     0.16000
O2566       O  0.79395259  0.17721261  0.78248668    -0.61000
H2567       H  0.79987052  0.16293359  0.78546311     0.43000
H2568       H  0.70898675  0.15677855  0.72570626     0.43000
C2569       C  0.77736230  0.16186294  0.94420585    -0.06100
C2570       C  0.77263505  0.16775896  0.98442234    -0.33500
C2571       C  0.77865027  0.15531367  0.01784336     0.35700
C2572       C  0.79030796  0.13669311  0.01196856    -0.06400
C2573       C  0.79593479  0.13161415  0.97171718    -0.33400
C2574       C  0.78914647  0.14343717  0.93849143     0.35600
H2575       H  0.76351314  0.18179122  0.99009554     0.16000
O2576       O  0.77191169  0.16088682  0.05565235    -0.60900
H2577       H  0.80492132  0.11758745  0.96528028     0.16000
O2578       O  0.79433933  0.13676604  0.90045243    -0.61000
H2579       H  0.78527797  0.12458016  0.89529468     0.43000
H2580       H  0.78008068  0.17341139  0.06285697     0.43000
C2581       C  0.72956123  0.35081388  0.57047708    -0.06100
C2582       C  0.73103472  0.37237861  0.57750386    -0.33500
C2583       C  0.72649622  0.38700670  0.54747053     0.35700
C2584       C  0.72017485  0.38047225  0.50878640    -0.06400
C2585       C  0.71930983  0.35889474  0.50096712    -0.33400
C2586       C  0.72381331  0.34412749  0.53138229     0.35600
H2587       H  0.73588607  0.37811835  0.60660081     0.16000
O2588       O  0.72916934  0.40780147  0.55594990    -0.60900
H2589       H  0.71470651  0.35344285  0.47150320     0.16000
O2590       O  0.72237593  0.32326446  0.52245233    -0.61000
H2591       H  0.70755012  0.31972487  0.52718017     0.43000
H2592       H  0.71645139  0.41215674  0.57098849     0.43000
C2593       C  0.74565153  0.27918638  0.62227662    -0.06100
C2594       C  0.75779888  0.26845732  0.65068943    -0.33500
C2595       C  0.75857524  0.24662595  0.65170942     0.35700
C2596       C  0.74703943  0.23484543  0.62385267    -0.06400
C2597       C  0.73626354  0.24557422  0.59325335    -0.33400
C2598       C  0.73560864  0.26757111  0.59219090     0.35600
H2599       H  0.76623374  0.27704783  0.67337566     0.16000
O2600       O  0.77066276  0.23700105  0.68025493    -0.60900
H2601       H  0.72743548  0.23695637  0.57121507     0.16000
O2602       O  0.72371910  0.27742209  0.56370355    -0.61000
H2603       H  0.73216215  0.27683861  0.53860056     0.43000
H2604       H  0.76304059  0.23891749  0.70610239     0.43000
C2605       C  0.74337564  0.33414028  0.80142157    -0.06100
C2606       C  0.75780457  0.34482687  0.77705648    -0.33500
C2607       C  0.75501189  0.34604600  0.73502367     0.35700
C2608       C  0.73775145  0.33638372  0.71708324    -0.06400
C2609       C  0.72238204  0.32768647  0.74199995    -0.33400
C2610       C  0.72504683  0.32659596  0.78374956     0.35600
H2611       H  0.77203700  0.35067426  0.79005673     0.16000
O2612       O  0.77029844  0.35468419  0.71146243    -0.60900
H2613       H  0.70899640  0.32020524  0.72873865     0.16000
O2614       O  0.71008185  0.31717014  0.80703066    -0.61000
H2615       H  0.71211943  0.30193642  0.80282407     0.43000
H2616       H  0.76537906  0.36912482  0.70585600     0.43000
C2617       C  0.76440054  0.34759930  0.94333867    -0.06100
C2618       C  0.76246870  0.34130061  0.98392729    -0.33500
C2619       C  0.76711279  0.35500984  0.01580146     0.35700
C2620       C  0.77404872  0.37546802  0.00756494    -0.06400
C2621       C  0.77616173  0.38150635  0.96690915    -0.33400
C2622       C  0.77135118  0.36800275  0.93530809     0.35600
H2623       H  0.75705511  0.32574253  0.99111379     0.16000
O2624       O  0.76451369  0.34825843  0.05466232    -0.60900
H2625       H  0.78134214  0.39705940  0.95906629     0.16000
O2626       O  0.77422137  0.37483126  0.89655686    -0.61000
H2627       H  0.76172611  0.38343887  0.89047500     0.43000
H2628       H  0.77847888  0.34327260  0.06310861     0.43000
C2629       C  0.75300276  0.27549138  0.89319698    -0.06100
C2630       C  0.73888191  0.26364279  0.87083580    -0.33500
C2631       C  0.73998296  0.24184278  0.87042021     0.35700
C2632       C  0.75558442  0.23128146  0.89227764    -0.06400
C2633       C  0.76883545  0.24298264  0.91697418    -0.33400
C2634       C  0.76759898  0.26495928  0.91763558     0.35600
H2635       H  0.72721666  0.27135749  0.85255721     0.16000
O2636       O  0.72609004  0.23103533  0.84735633    -0.60900
H2637       H  0.78093081  0.23517447  0.93401653     0.16000
O2638       O  0.78184005  0.27591876  0.93956831    -0.61000
H2639       H  0.77480859  0.27890966  0.96564349     0.43000
H2640       H  0.71501714  0.22653111  0.86634991     0.43000
C2641       C  0.58589316  0.48392219  0.69365324    -0.06100
C2642       C  0.58247425  0.49141174  0.73316058    -0.33500
C2643       C  0.59588247  0.48581663  0.76507385     0.35700
C2644       C  0.61292997  0.47210289  0.75818193    -0.06400
C2645       C  0.61552952  0.46391667  0.71886218    -0.33400
C2646       C  0.60243616  0.46976651  0.68709837     0.35600
H2647       H  0.56977541  0.50227686  0.73905719     0.16000
O2648       O  0.59284721  0.49486976  0.80207744    -0.60900
H2649       H  0.62826324  0.45323563  0.71208218     0.16000
O2650       O  0.60606240  0.46152083  0.64955553    -0.61000
H2651       H  0.59800215  0.44837223  0.64888067     0.43000
H2652       H  0.58387194  0.48500857  0.81714944     0.43000
C2653       C  0.57395761  0.51084969  0.46520060    -0.06100
C2654       C  0.58551354  0.49458676  0.48324297    -0.33500
C2655       C  0.58585630  0.49233631  0.52563590     0.35700
C2656       C  0.57459152  0.50650487  0.55027106    -0.06400
C2657       C  0.56497588  0.52385902  0.53198211    -0.33400
C2658       C  0.56447533  0.52600766  0.49016552     0.35600
H2659       H  0.59277920  0.48267544  0.46453331     0.16000
O2660       O  0.59571975  0.47536217  0.54227743    -0.60900
H2661       H  0.55617389  0.53494611  0.55019119     0.16000
O2662       O  0.55287515  0.54196387  0.47388115    -0.61000
H2663       H  0.56314025  0.55266884  0.46567442     0.43000
H2664       H  0.58496461  0.46436212  0.54403804     0.43000
C2665       C  0.58805547  0.51827261  0.31801926    -0.06100
C2666       C  0.60481816  0.53162134  0.32470219    -0.33500
C2667       C  0.61828287  0.53742548  0.29337650     0.35700
C2668       C  0.61580176  0.52920125  0.25392000    -0.06400
C2669       C  0.59873759  0.51604423  0.24708290    -0.33400
C2670       C  0.58484272  0.51077164  0.27850082     0.35600
H2671       H  0.60737876  0.53798997  0.35446521     0.16000
O2672       O  0.63415966  0.55084178  0.30228249    -0.60900
H2673       H  0.59641961  0.50932789  0.21754693     0.16000
O2674       O  0.56879998  0.49741183  0.27058482    -0.61000
H2675       H  0.55761585  0.50634244  0.25915836     0.43000
H2676       H  0.62754371  0.56487949  0.30427608     0.43000
C2677       C  0.47153366  0.49498028  0.63633663    -0.06100
C2678       C  0.48171044  0.50944658  0.61152833    -0.33500
C2679       C  0.50328263  0.51188109  0.61313950     0.35700
C2680       C  0.51536518  0.49953198  0.63967863    -0.06400
C2681       C  0.50509992  0.48596898  0.66624316    -0.33400
C2682       C  0.48338723  0.48363054  0.66477058     0.35600
H2683       H  0.47296609  0.51863863  0.58998533     0.16000
O2684       O  0.51244240  0.52584019  0.58728812    -0.60900
H2685       H  0.51400240  0.47623209  0.68662068     0.16000
O2686       O  0.47422258  0.46897114  0.68905084    -0.61000
H2687       H  0.47175793  0.47615963  0.71511847     0.43000
H2688       H  0.51472687  0.53860001  0.60356148     0.43000
C2689       C  0.41187131  0.50267625  0.45956140    -0.06100
C2690       C  0.41193020  0.48198460  0.47424513    -0.33500
C2691       C  0.41217105  0.47758174  0.51600826     0.35700
C2692       C  0.41226704  0.49392473  0.54454497    -0.06400
C2693       C  0.41107851  0.51460373  0.52987406    -0.33400
C2694       C  0.41083438  0.51900978  0.48812212     0.35600
H2695       H  0.41358771  0.46913157  0.45318147     0.16000
O2696       O  0.41435000  0.45725397  0.52848316    -0.60900
H2697       H  0.41201057  0.52751118  0.55088787     0.16000
O2698       O  0.41218956  0.53939468  0.47569574    -0.61000
H2699       H  0.39805753  0.54312048  0.46607716     0.43000
H2700       H  0.42953514  0.45428751  0.52726616     0.43000
C2701       C  0.47258502  0.50476896  0.37061370    -0.06100
C2702       C  0.48367206  0.51534854  0.34011430    -0.33500
C2703       C  0.50562335  0.51554500  0.33977516     0.35700
C2704       C  0.51676271  0.50546659  0.37079395    -0.06400
C2705       C  0.50566653  0.49379548  0.39935263    -0.33400
C2706       C  0.48398699  0.49302380  0.39901534     0.35600
H2707       H  0.47536440  0.52419598  0.31745151     0.16000
O2708       O  0.51585018  0.52676608  0.31068041    -0.60900
H2709       H  0.51386156  0.48533611  0.42271865     0.16000
O2710       O  0.47414233  0.48102865  0.42744407    -0.61000
H2711       H  0.47335129  0.46687825  0.41536630     0.43000
H2712       H  0.51891737  0.51657158  0.28888174     0.43000
C2713       C  0.90893052  0.47142714  0.82553268    -0.06100
C2714       C  0.91312812  0.48027538  0.78736111    -0.33500
C2715       C  0.89951247  0.47751173  0.75445764     0.35700
C2716       C  0.88131809  0.46537011  0.75876804    -0.06400
C2717       C  0.87792934  0.45557104  0.79634105    -0.33400
C2718       C  0.89131714  0.45851359  0.82913692     0.35600
H2719       H  0.92668282  0.49003390  0.78328528     0.16000
O2720       O  0.90386735  0.48736689  0.71877824    -0.60900
H2721       H  0.86439090  0.44584328  0.80090085     0.16000
O2722       O  0.88682486  0.44868078  0.86477671    -0.61000
H2723       H  0.89548571  0.43576506  0.86458219     0.43000
H2724       H  0.89648844  0.50103072  0.72046055     0.43000
C2725       C  0.92196255  0.47737237  0.97459850    -0.06100
C2726       C  0.93179585  0.46223708  0.99868404    -0.33500
C2727       C  0.93320272  0.46471884  0.04053044     0.35700
C2728       C  0.92483442  0.48268232  0.05948902    -0.06400
C2729       C  0.91322317  0.49686967  0.03609849    -0.33400
C2730       C  0.91189813  0.49438873  0.99387976     0.35600
H2731       H  0.93996470  0.44923923  0.98455602     0.16000
O2732       O  0.94429511  0.45025689  0.06226518    -0.60900
H2733       H  0.90677240  0.51085486  0.04994118     0.16000
O2734       O  0.90229405  0.50959920  0.97145009    -0.61000
H2735       H  0.91293717  0.52056541  0.96746886     0.43000
H2736       H  0.93364988  0.44134316  0.07534281     0.43000
C2737       C  0.91138050  0.50708990  0.20071290    -0.06100
C2738       C  0.89100907  0.51301801  0.19072650    -0.33500
C2739       C  0.87674281  0.52003187  0.21997402     0.35700
C2740       C  0.88235441  0.52112538  0.26121192    -0.06400
C2741       C  0.90261881  0.51469725  0.27159800    -0.33400
C2742       C  0.91709636  0.50793206  0.24188660     0.35600
H2743       H  0.88596060  0.51240264  0.15971975     0.16000
O2744       O  0.85692012  0.52488518  0.20775048    -0.60900
H2745       H  0.90732577  0.51498104  0.30282144     0.16000
O2746       O  0.93650628  0.50144604  0.25378971    -0.61000
H2747       H  0.94455339  0.51445566  0.25753959     0.43000
H2748       H  0.85793550  0.53884769  0.19494936     0.43000
C2749       C  0.02334406  0.48999056  0.87790062    -0.06100
C2750       C  0.01174267  0.50085505  0.90731604    -0.33500
C2751       C  0.99002873  0.49946920  0.90920419     0.35700
C2752       C  0.97916821  0.48732617  0.88082149    -0.06400
C2753       C  0.99059392  0.47723141  0.85015749    -0.33400
C2754       C  0.01247859  0.47826449  0.84880086     0.35600
H2755       H  0.01954811  0.51015689  0.92980103     0.16000
O2756       O  0.97954535  0.51018985  0.93900572    -0.60900
H2757       H  0.98264690  0.46759009  0.82841887     0.16000
O2758       O  0.02302734  0.46696098  0.81996742    -0.61000
H2759       H  0.02629788  0.45334199  0.83282502     0.43000
H2760       H  0.98148342  0.50175317  0.96376806     0.43000
C2761       C  0.08430946  0.50512969  0.04770209    -0.06100
C2762       C  0.08014074  0.48487736  0.03334206    -0.33500
C2763       C  0.08005584  0.48018074  0.99195221     0.35700
C2764       C  0.08452174  0.49565349  0.96302163    -0.06400
C2765       C  0.09010924  0.51565351  0.97722832    -0.33400
C2766       C  0.08996003  0.52045093  0.01905820     0.35600
H2767       H  0.07517062  0.47292573  0.05434305     0.16000
O2768       O  0.07307838  0.46098005  0.97992978    -0.60900
H2769       H  0.09282332  0.52810027  0.95578136     0.16000
O2770       O  0.09340942  0.54060989  0.03118093    -0.61000
H2771       H  0.07967228  0.54775275  0.02937941     0.43000
H2772       H  0.08584509  0.45258205  0.97453841     0.43000
C2773       C  0.98345024  0.49613473  0.14812221    -0.06100
C2774       C  0.99207009  0.51305204  0.16905700    -0.33500
C2775       C  0.01359707  0.51686631  0.16741367     0.35700
C2776       C  0.02682325  0.50374896  0.14432686    -0.06400
C2777       C  0.01835000  0.48611840  0.12561974    -0.33400
C2778       C  0.99694537  0.48222915  0.12745173     0.35600
H2779       H  0.98198791  0.52401335  0.18488913     0.16000
O2780       O  0.02122687  0.53439963  0.18568356    -0.60900
H2781       H  0.02831312  0.47554014  0.10855830     0.16000
O2782       O  0.98933802  0.46474329  0.10889280    -0.61000
H2783       H  0.98908116  0.46816527  0.07979088     0.43000
H2784       H  0.02425578  0.53007096  0.21369774     0.43000
C2785       C  0.23909277  0.67035958  0.21831358    -0.06100
C2786       C  0.22410077  0.66484468  0.24753686    -0.33500
C2787       C  0.22897284  0.66436147  0.28913718     0.35700
C2788       C  0.24922272  0.66922218  0.30272972    -0.06400
C2789       C  0.26450058  0.67331003  0.27319860    -0.33400
C2790       C  0.25960237  0.67399194  0.23174625     0.35600
H2791       H  0.20809729  0.66264438  0.23848235     0.16000
O2792       O  0.21322884  0.66121076  0.31650140    -0.60900
H2793       H  0.27999280  0.67770871  0.28250113     0.16000
O2794       O  0.27479642  0.67953890  0.20462806    -0.61000
H2795       H  0.27471627  0.69504406  0.20449768     0.43000
H2796       H  0.21501791  0.64655062  0.32558915     0.43000
C2797       C  0.22767710  0.77533360  0.13433809    -0.06100
C2798       C  0.23358203  0.76424094  0.09945378    -0.33500
C2799       C  0.23294274  0.74218343  0.09856117     0.35700
C2800       C  0.22608741  0.73100724  0.13274570    -0.06400
C2801       C  0.21901975  0.74226516  0.16648535    -0.33400
C2802       C  0.21980845  0.76406763  0.16758999     0.35600
H2803       H  0.23968259  0.77257746  0.07362148     0.16000
O2804       O  0.23986723  0.73172840  0.06492150    -0.60900
H2805       H  0.21316392  0.73406449  0.19271309     0.16000
O2806       O  0.21265233  0.77426129  0.20141637    -0.61000
H2807       H  0.22379017  0.77247967  0.22169170     0.43000
H2808       H  0.25525915  0.73291597  0.06528166     0.43000
C2809       C  0.25276411  0.83124444  0.30496049    -0.06100
C2810       C  0.23487189  0.84096173  0.28939282    -0.33500
C2811       C  0.23161461  0.84172898  0.24760335     0.35700
C2812       C  0.24652078  0.83297171  0.22104134    -0.06400
C2813       C  0.26518090  0.82495359  0.23668735    -0.33400
C2814       C  0.26832692  0.82397285  0.27825421     0.35600
H2815       H  0.22257234  0.84618502  0.30962871     0.16000
O2816       O  0.21298135  0.84914873  0.23331153    -0.60900
H2817       H  0.27656464  0.81772253  0.21671062     0.16000
O2818       O  0.28570676  0.81389832  0.29253960    -0.61000
H2819       H  0.29534986  0.82520016  0.30032230     0.43000
H2820       H  0.20372876  0.83682117  0.23239757     0.43000
C2821       C  0.24714743  0.77283260  0.39731710    -0.06100
C2822       C  0.25827381  0.76184291  0.42684467    -0.33500
C2823       C  0.25930643  0.73986207  0.42623871     0.35700
C2824       C  0.24901687  0.72853778  0.39577742    -0.06400
C2825       C  0.23644595  0.73958997  0.36859228    -0.33400
C2826       C  0.23538001  0.76141891  0.36924189     0.35600
H2827       H  0.26722047  0.77028622  0.44896441     0.16000
O2828       O  0.27117072  0.72976372  0.45446029    -0.60900
H2829       H  0.22774357  0.73131962  0.34585859     0.16000
O2830       O  0.22274026  0.77149979  0.34217649    -0.61000
H2831       H  0.22991515  0.77013903  0.31574076     0.43000
H2832       H  0.28563778  0.73018344  0.44383109     0.43000
C2833       C  0.20075220  0.63509959  0.00825837    -0.06100
C2834       C  0.19372815  0.63152505  0.04823390    -0.33500
C2835       C  0.20022774  0.64384613  0.08089939     0.35700
C2836       C  0.21387688  0.66066893  0.07483871    -0.06400
C2837       C  0.21972397  0.66536494  0.03472719    -0.33400
C2838       C  0.21360487  0.65265795  0.00189981     0.35600
H2839       H  0.18368468  0.61842475  0.05480448     0.16000
O2840       O  0.19309650  0.63914940  0.11881415    -0.60900
H2841       H  0.22978547  0.67854211  0.02887977     0.16000
O2842       O  0.22093398  0.65718903  0.96406501    -0.61000
H2843       H  0.23512772  0.65096410  0.96280118     0.43000
H2844       H  0.18195097  0.64959177  0.12456270     0.43000
C2845       C  0.40468740  0.52657023  0.31360463    -0.06100
C2846       C  0.41427374  0.52720980  0.27498216    -0.33500
C2847       C  0.40379700  0.53490901  0.24065901     0.35700
C2848       C  0.38326591  0.54266010  0.24388552    -0.06400
C2849       C  0.37367713  0.54200387  0.28239921    -0.33400
C2850       C  0.38404325  0.53418991  0.31667726     0.35600
H2851       H  0.43010212  0.52156104  0.27100839     0.16000
O2852       O  0.41405156  0.53524872  0.20433078    -0.60900
H2853       H  0.35768581  0.54711352  0.28605373     0.16000
O2854       O  0.37363186  0.53391609  0.35286510    -0.61000
H2855       H  0.37426801  0.54845959  0.36311348     0.43000
H2856       H  0.41198233  0.52116628  0.19261335     0.43000
C2857       C  0.11193621  0.45799219  0.74478340    -0.06100
C2858       C  0.10038979  0.47682380  0.74358860    -0.33500
C2859       C  0.09026326  0.48492225  0.77831293     0.35700
C2860       C  0.09180496  0.47460786  0.81587096    -0.06400
C2861       C  0.10248305  0.45539681  0.81683925    -0.33400
C2862       C  0.11229293  0.44704245  0.78202918     0.35600
H2863       H  0.10002827  0.48591898  0.71611090     0.16000
O2864       O  0.07968375  0.50357549  0.77560271    -0.60900
H2865       H  0.10299948  0.44659859  0.84466860     0.16000
O2866       O  0.12214653  0.42797141  0.78471842    -0.61000
H2867       H  0.13405861  0.43013285  0.80303053     0.43000
H2868       H  0.06531228  0.49980500  0.76786403     0.43000
C2869       C  0.38131505  0.45427612  0.75787878    -0.06100
C2870       C  0.39675479  0.46946139  0.76285486    -0.33500
C2871       C  0.40861043  0.47680316  0.72980942     0.35700
C2872       C  0.40477025  0.46965517  0.69005522    -0.06400
C2873       C  0.39034236  0.45352714  0.68540154    -0.33400
C2874       C  0.37916370  0.44551859  0.71867586     0.35600
H2875       H  0.39891032  0.47660148  0.79207470     0.16000
O2876       O  0.42304701  0.49206517  0.73651493    -0.60900
H2877       H  0.38777788  0.44695859  0.65581413     0.16000
O2878       O  0.36549655  0.42954887  0.71203590    -0.61000
H2879       H  0.37346722  0.41657873  0.71798125     0.43000
H2880       H  0.43529158  0.48465171  0.74788626     0.43000
C2881       C  0.11803430  0.54718130  0.25766330    -0.06100
C2882       C  0.12235186  0.55313285  0.21725406    -0.33500
C2883       C  0.11063859  0.54576164  0.18443894     0.35700
C2884       C  0.09368013  0.53236391  0.19086650    -0.06400
C2885       C  0.08837880  0.52758446  0.23129552    -0.33400
C2886       C  0.10029493  0.53471590  0.26418805     0.35600
H2887       H  0.13558100  0.56295786  0.21051987     0.16000
O2888       O  0.11574926  0.55212725  0.14623912    -0.60900
H2889       H  0.07523647  0.51757019  0.23759810     0.16000
O2890       O  0.09510799  0.52826682  0.30226286    -0.61000
H2891       H  0.08368906  0.53779610  0.31107570     0.43000
H2892       H  0.12777399  0.54322025  0.13805445     0.43000
C2893       C  0.28600408  0.64088823  0.52218138    -0.06100
C2894       C  0.26554289  0.64902227  0.52069769    -0.33500
C2895       C  0.25764459  0.65865263  0.48543777     0.35700
C2896       C  0.26989365  0.65990270  0.44991328    -0.06400
C2897       C  0.29044256  0.65225013  0.45154008    -0.33400
C2898       C  0.29849084  0.64302978  0.48694918     0.35600
H2899       H  0.25525000  0.64714183  0.54640665     0.16000
O2900       O  0.23748454  0.66598616  0.48530166    -0.60900
H2901       H  0.30051145  0.65379846  0.42542053     0.16000
O2902       O  0.31865278  0.63578793  0.48648432    -0.61000
H2903       H  0.32716167  0.64786410  0.49492427     0.43000
H2904       H  0.23700870  0.67755700  0.50517749     0.43000
C2905       C  0.26829845  0.87203591  0.51715770    -0.06100
C2906       C  0.26539406  0.87959384  0.47778309    -0.33500
C2907       C  0.26155241  0.86621444  0.44545908     0.35700
C2908       C  0.26023905  0.84438946  0.45156209    -0.06400
C2909       C  0.26253771  0.83677934  0.49124983    -0.33400
C2910       C  0.26633062  0.85040214  0.52385468     0.35600
H2911       H  0.26612577  0.89622108  0.47171655     0.16000
O2912       O  0.25881587  0.87490463  0.40810746    -0.60900
H2913       H  0.26156210  0.82016869  0.49714799     0.16000
O2914       O  0.26891543  0.84229698  0.56167406    -0.61000
H2915       H  0.25461583  0.83969318  0.57188512     0.43000
H2916       H  0.27307473  0.87734428  0.39750082     0.43000
C2917       C  0.08199701  0.98000276  0.19464921    -0.06100
C2918       C  0.07596261  0.98280573  0.23532172    -0.33500
C2919       C  0.08942104  0.97756192  0.26733874     0.35700
C2920       C  0.10945162  0.96911003  0.25942582    -0.06400
C2921       C  0.11488682  0.96526900  0.21872594    -0.33400
C2922       C  0.10154181  0.97052848  0.18691699     0.35600
H2923       H  0.06087802  0.98959987  0.24253153     0.16000
O2924       O  0.08276085  0.98084857  0.30614857    -0.60900
H2925       H  0.12991654  0.95850115  0.21102411     0.16000
O2926       O  0.10802065  0.96642302  0.14826636    -0.61000
H2927       H  0.10149189  0.95293372  0.14114706     0.43000
H2928       H  0.08499994  0.99593238  0.31127734     0.43000
C2929       C  0.37811816  0.02526554  0.76983388    -0.06100
C2930       C  0.37555060  0.03264731  0.73004516    -0.33500
C2931       C  0.38892877  0.02641914  0.69862576     0.35700
C2932       C  0.40567882  0.01276673  0.70623113    -0.06400
C2933       C  0.40887319  0.00591607  0.74603276    -0.33400
C2934       C  0.39526437  0.01189725  0.77757097     0.35600
H2935       H  0.36278033  0.04310547  0.72271290     0.16000
O2936       O  0.38592383  0.03445235  0.66082804    -0.60900
H2937       H  0.42174937  0.99543572  0.75262023     0.16000
O2938       O  0.39842508  0.00382227  0.81527244    -0.61000
H2939       H  0.40984753  0.01220117  0.82682050     0.43000
H2940       H  0.37461817  0.02599826  0.64905847     0.43000
C2941       C  0.10430424  0.03094411  0.75464312    -0.06100
C2942       C  0.10525854  0.04175883  0.79164741    -0.33500
C2943       C  0.09174955  0.03719873  0.82377862     0.35700
C2944       C  0.07656830  0.02163124  0.81979522    -0.06400
C2945       C  0.07454685  0.01173415  0.78211178    -0.33400
C2946       C  0.08823733  0.01621387  0.74978431     0.35600
H2947       H  0.11710226  0.05344856  0.79637996     0.16000
O2948       O  0.09372662  0.04797357  0.85921086    -0.60900
H2949       H  0.06284223  0.99982487  0.77818913     0.16000
O2950       O  0.08660514  0.00506207  0.71472685    -0.61000
H2951       H  0.07564006  0.01237461  0.69912585     0.43000
H2952       H  0.08383746  0.05991659  0.85713325     0.43000
C2953       C  0.22837273  0.84791427  0.07841815    -0.06100
C2954       C  0.22811487  0.86943954  0.08682409    -0.33500
C2955       C  0.22392666  0.88425131  0.05689799     0.35700
C2956       C  0.21981342  0.87794929  0.01683222    -0.06400
C2957       C  0.22102728  0.85651926  0.00775046    -0.33400
C2958       C  0.22497461  0.84157074  0.03810052     0.35600
H2959       H  0.23084065  0.87501580  0.11709895     0.16000
O2960       O  0.22368372  0.90498624  0.06754637    -0.60900
H2961       H  0.21825113  0.85124255  0.97730139     0.16000
O2962       O  0.22555407  0.82082440  0.02777020    -0.61000
H2963       H  0.21077394  0.81646431  0.02705492     0.43000
H2964       H  0.23842739  0.90940325  0.06617291     0.43000
C2965       C  0.37831709  0.96478435  0.26870636    -0.06100
C2966       C  0.39786014  0.97389403  0.26047055    -0.33500
C2967       C  0.41247501  0.97781794  0.29141839     0.35700
C2968       C  0.40778349  0.97300932  0.33217232    -0.06400
C2969       C  0.38857617  0.96337498  0.34005936    -0.33400
C2970       C  0.37412960  0.95925687  0.30942716     0.35600
H2971       H  0.40172466  0.97847682  0.22996612     0.16000
O2972       O  0.43091371  0.98720158  0.28143937    -0.60900
H2973       H  0.38448466  0.95900560  0.37058242     0.16000
O2974       O  0.35587331  0.94966148  0.32010996    -0.61000
H2975       H  0.34706666  0.96080224  0.33244358     0.43000
H2976       H  0.44077001  0.97551361  0.27585458     0.43000
C2977       C  0.26632571  0.16639823  0.57962094    -0.06100
C2978       C  0.26142812  0.17116171  0.53924131    -0.33500
C2979       C  0.26617933  0.15713311  0.50744465     0.35700
C2980       C  0.27624088  0.13786457  0.51531836    -0.06400
C2981       C  0.28196286  0.13372472  0.55565543    -0.33400
C2982       C  0.27715493  0.14759974  0.58724258     0.35600
H2983       H  0.25339849  0.18565871  0.53227597     0.16000
O2984       O  0.26098448  0.16255533  0.46889246    -0.60900
H2985       H  0.29001027  0.11934417  0.56335943     0.16000
O2986       O  0.28384876  0.14290212  0.62533639    -0.61000
H2987       H  0.27407010  0.13220082  0.63559597     0.43000
H2988       H  0.24642258  0.15785743  0.46556923     0.43000
C2989       C  0.24165489  0.17625699  0.80828152    -0.06100
C2990       C  0.22599390  0.18618917  0.78594112    -0.33500
C2991       C  0.22744907  0.18779553  0.74395756     0.35700
C2992       C  0.24486593  0.17945232  0.72309174    -0.06400
C2993       C  0.25959419  0.16774225  0.74492578    -0.33400
C2994       C  0.25808351  0.16614419  0.78732676     0.35600
H2995       H  0.21342402  0.19435341  0.80144330     0.16000
O2996       O  0.21256045  0.19911565  0.72386497    -0.60900
H2997       H  0.27318711  0.16134798  0.72963812     0.16000
O2998       O  0.27385784  0.15664803  0.80828790    -0.61000
H2999       H  0.27261494  0.14151299  0.80235825     0.43000
H3000       H  0.20116673  0.18911950  0.71874520     0.43000
C3001       C  0.23080240  0.16543721  0.95661900    -0.06100
C3002       C  0.21691034  0.14908035  0.95022830    -0.33500
C3003       C  0.20930695  0.13699198  0.98218409     0.35700
C3004       C  0.21641577  0.14005762  0.02224522    -0.06400
C3005       C  0.22990881  0.15690472  0.02894613    -0.33400
C3006       C  0.23676714  0.16971526  0.99684545     0.35600
H3007       H  0.21146310  0.14579363  0.92012196     0.16000
O3008       O  0.19508212  0.12188227  0.97323321    -0.60900
H3009       H  0.23546823  0.16000839  0.05903230     0.16000
O3010       O  0.24946468  0.18625295  0.00527079    -0.61000
H3011       H  0.26370784  0.18020852  0.00676975     0.43000
H3012       H  0.18133487  0.12906107  0.97444102     0.43000
C3013       C  0.29705967  0.37142700  0.50840200    -0.06100
C3014       C  0.28200435  0.35583871  0.50317290    -0.33500
C3015       C  0.27450318  0.34395344  0.53610806     0.35700
C3016       C  0.28139460  0.34790422  0.57597444    -0.06400
C3017       C  0.29732955  0.36251340  0.58074957    -0.33400
C3018       C  0.30538166  0.37381582  0.54771051     0.35600
H3019       H  0.27512972  0.35357114  0.47384234     0.16000
O3020       O  0.25945105  0.32934406  0.52910841    -0.60900
H3021       H  0.30369988  0.36522397  0.61036807     0.16000
O3022       O  0.32142279  0.38740801  0.55433595    -0.61000
H3023       H  0.31533362  0.39895153  0.57067646     0.43000
H3024       H  0.26710022  0.31681151  0.51911957     0.43000
C3025       C  0.25328313  0.28236127  0.63222536    -0.06100
C3026       C  0.26309110  0.27057716  0.60162273    -0.33500
C3027       C  0.26133833  0.24870325  0.60033756     0.35700
C3028       C  0.24976289  0.23815938  0.63023929    -0.06400
C3029       C  0.23852847  0.25019335  0.65866439    -0.33400
C3030       C  0.24014224  0.27197510  0.65977710     0.35600
H3031       H  0.27311666  0.27817819  0.57983601     0.16000
O3032       O  0.27230172  0.23780590  0.57153060    -0.60900
H3033       H  0.22898547  0.24264252  0.68132625     0.16000
O3034       O  0.22940756  0.28282332  0.68904616    -0.61000
H3035       H  0.21592924  0.28671324  0.67661391     0.43000
H3036       H  0.26269043  0.23670680  0.54842364     0.43000
C3037       C  0.25684183  0.33743971  0.81027644    -0.06100
C3038       C  0.27597650  0.33124061  0.79263941    -0.33500
C3039       C  0.27959496  0.33262564  0.75082187     0.35700
C3040       C  0.26397152  0.34019756  0.72492267    -0.06400
C3041       C  0.24534742  0.34780699  0.74271031    -0.33400
C3042       C  0.24179295  0.34664766  0.78490051     0.35600
H3043       H  0.28775590  0.32384871  0.81113134     0.16000
O3044       O  0.29759696  0.32419643  0.73503636    -0.60900
H3045       H  0.23276364  0.35300142  0.72352215     0.16000
O3046       O  0.22260704  0.35211100  0.80015664    -0.61000
H3047       H  0.22254684  0.36760272  0.80114948     0.43000
H3048       H  0.30795056  0.33557895  0.73638021     0.43000
C3049       C  0.21106389  0.36651335  0.02310410    -0.06100
C3050       C  0.20522294  0.37147049  0.98304443    -0.33500
C3051       C  0.21445015  0.36154376  0.94915370     0.35700
C3052       C  0.22960965  0.34573940  0.95415450    -0.06400
C3053       C  0.23525857  0.34052395  0.99396890    -0.33400
C3054       C  0.22648088  0.35081226  0.02783584     0.35600
H3055       H  0.19376640  0.38363644  0.97757987     0.16000
O3056       O  0.20798976  0.36701457  0.91133063    -0.60900
H3057       H  0.24696983  0.32853369  0.99900872     0.16000
O3058       O  0.23387745  0.34593449  0.06528212    -0.61000
H3059       H  0.22579805  0.33358425  0.07402363     0.43000
H3060       H  0.21614250  0.37960159  0.90422360     0.43000
C3061       C  0.25418154  0.27755091  0.90181063    -0.06100
C3062       C  0.26666980  0.26615407  0.87441118    -0.33500
C3063       C  0.26652405  0.24427508  0.87388547     0.35700
C3064       C  0.25373553  0.23323097  0.90109968    -0.06400
C3065       C  0.24260371  0.24446583  0.93060803    -0.33400
C3066       C  0.24276738  0.26639816  0.93124873     0.35600
H3067       H  0.27600144  0.27422761  0.85210776     0.16000
O3068       O  0.27823714  0.23391380  0.84535176    -0.60900
H3069       H  0.23265417  0.23631380  0.95177686     0.16000
O3070       O  0.23028319  0.27665922  0.95864100    -0.61000
H3071       H  0.23761205  0.27539994  0.98470006     0.43000
H3072       H  0.29064257  0.22859250  0.85984026     0.43000
loop_ 
_geom_bond_atom_site_label_1 
_geom_bond_atom_site_label_2 
_geom_bond_distance 
_geom_bond_site_symmetry_2 
_ccdc_geom_bond_type 
C1            N2   1.381       .  A
C1            N6   1.361       .  A
C1         C3052   1.513       .  S
N2            C3   1.378       .  A
C3            N4   1.359       .  A
C3         C3037   1.510       .  S
N4            C5   1.357       .  A
C5            N6   1.357       .  A
C5         C3061   1.493       .  S
C7            N8   1.382       .  A
C7           N12   1.362       .  A
C7         C3016   1.514       .  S
N8            C9   1.377       .  A
C9           N10   1.355       .  A
C9         C3040   1.502       .  S
N10          C11   1.355       .  A
C11          N12   1.358       .  A
C11        C3025   1.488       .  S
C13          N14   1.375       .  A
C13          N18   1.362       .  A
C13        C3001   1.503       .  S
N14          C15   1.368       .  A
C15          N16   1.353       .  A
C15        C2989   1.487       .  S
N16          C17   1.353       .  A
C17          N18   1.359       .  A
C17        C3064   1.483       .  S
C19          N20   1.373       .  A
C19          N24   1.367       .  A
C19        C2977   1.504       .  S
N20          C21   1.366       .  A
C21          N22   1.354       .  A
C21        C2992   1.493       .  S
N22          C23   1.355       .  A
C23          N24   1.363       .  A
C23        C3028   1.493       .  S
Zr25         O26   2.433       .  S
Zr25         O27   2.467       .  S
Zr25         O28   2.451       .  S
Zr25         O31   2.595       .  S
Zr25         O33   2.422       .  S
Zr25         O34   2.384       .  S
Zr25         O35   2.483       .  S
Zr25         O36   2.323       .  S
O26          H82   0.990       .  S
O26          H90   0.990       .  S
O27          C47   1.285   1_565  A
O28          C49   1.294       .  A
O29         Zr39   2.247       .  S
O29          C48   1.247       .  A
O30         Zr38   2.541       .  S
O30          C49   1.310       .  A
O31          C48   1.321       .  A
O32         Zr40   2.372       .  S
O32          C47   1.262       .  A
O33         Zr38   2.417       .  S
O33         Zr40   2.290   1_565  S
O34         Zr39   2.378       .  S
O34         Zr40   2.414   1_565  S
O34          H69   0.965       .  S
O35         Zr38   2.454       .  S
O35         Zr55   2.435       .  S
O35          H72   0.966       .  S
O36         Zr39   2.244       .  S
O36         Zr55   2.334       .  S
Zr37         O62   2.423   1_565  S
Zr37         O56   2.438       .  S
Zr37         O64   2.449   1_565  S
Zr37         O52   2.394       .  S
Zr37         O43   2.326       .  S
Zr37         O44   2.397       .  S
Zr37         O45   2.375       .  S
Zr37         O46   2.406       .  S
Zr38         O57   2.437       .  S
Zr38         O50   2.437       .  S
Zr38         O51   2.608       .  S
Zr38         O44   2.407       .  S
Zr38         O45   2.406       .  S
Zr39         O41   2.437       .  S
Zr39         O63   2.434       .  S
Zr39         O65   2.296       .  S
Zr39         O43   2.371       .  S
Zr39         O46   2.239       .  S
Zr40         O66   2.410       .  S
Zr40         O67   2.426       .  S
Zr40         O42   2.440       .  S
Zr40         O43   2.405   1_545  S
Zr40         O44   2.372   1_545  S
O41          H78   0.990       .  S
O42          H73   0.990       .  S
O42          H87   0.990       .  S
O44          H70   0.965   1_565  S
O45         Zr55   2.394       .  S
O46         Zr55   2.380       .  S
O46          H71   0.966       .  S
C47         C259   1.462       .  S
C48         C444   1.454       .  S
C49        C2965   1.525       .  S
O50          H86   0.990       .  S
O51          C53   1.302       .  A
O52          C53   1.261       .  A
C53         C317   1.533   1_564  S
O54         Zr55   2.438       .  S
O54          H83   0.990       .  S
Zr55         O58   2.435       .  S
Zr55         O59   2.439       .  S
Zr55         O60   2.510       .  S
O56          C61   1.290       .  A
O57          H74   0.990       .  S
O57          H89   0.990       .  S
O58          H75   0.990       .  S
O59          H79   0.991       .  S
O59          H88   0.989       .  S
O60          C61   1.300       .  A
C61         C113   1.463       .  S
O62          H81   0.986       .  S
O62          H85   0.989       .  S
O63          H77   0.990       .  S
O63          H84   0.990       .  S
O64          C68   1.255       .  A
O65          C68   1.246   1_565  A
O66          H76   0.990       .  S
O67          H80   0.990       .  S
C68         C398   1.448       .  S
Zr91         O92   2.435   1_556  S
Zr91         O93   2.485   1_556  S
Zr91         O94   2.417       .  S
Zr91         O97   2.610   1_556  S
Zr91         O99   2.424       .  S
Zr91        O100   2.363       .  S
Zr91        O101   2.473       .  S
Zr91        O102   2.326       .  S
O92         H148   0.990       .  S
O92         H156   0.990       .  S
O93         C113   1.291       .  A
O94         C115   1.286       .  A
O95        Zr105   2.262   1_545  S
O95         C114   1.249   1_556  A
O96        Zr104   2.517       .  S
O96         C115   1.304       .  A
O97         C114   1.320   1_565  A
O98        Zr106   2.377       .  S
O98         C113   1.258   1_556  A
O99        Zr104   2.415       .  S
O99        Zr106   2.298       .  S
O100       Zr105   2.425       .  S
O100       Zr106   2.419       .  S
O100        H135   0.961       .  S
O101       Zr104   2.450       .  S
O101       Zr121   2.430       .  S
O101        H138   0.966       .  S
O102       Zr105   2.246       .  S
O102       Zr121   2.335       .  S
Zr103       O128   2.402       .  S
Zr103       O122   2.419       .  S
Zr103       O130   2.459       .  S
Zr103       O118   2.443       .  S
Zr103       O109   2.324       .  S
Zr103       O110   2.388       .  S
Zr103       O111   2.375       .  S
Zr103       O112   2.388       .  S
Zr104       O123   2.434       .  S
Zr104       O116   2.435       .  S
Zr104       O117   2.585       .  S
Zr104       O110   2.415       .  S
Zr104       O111   2.410       .  S
Zr105       O107   2.442       .  S
Zr105       O129   2.446   1_565  S
Zr105       O131   2.307   1_565  S
Zr105       O109   2.381       .  S
Zr105       O112   2.294       .  S
Zr106       O132   2.432       .  S
Zr106       O133   2.421       .  S
Zr106       O108   2.446       .  S
Zr106       O109   2.414       .  S
Zr106       O110   2.343       .  S
O107        H144   0.990       .  S
O108        H139   0.990       .  S
O108        H153   0.990       .  S
O110        H136   0.962       .  S
O111       Zr121   2.402       .  S
O112       Zr121   2.406       .  S
O112        H137   0.966       .  S
C114        C378   1.482       .  S
C115       C2956   1.500   1_556  S
O116        H152   0.990       .  S
O117        C119   1.314       .  A
O118        C119   1.288       .  A
C119        C515   1.522       .  S
O120       Zr121   2.440       .  S
O120        H149   0.990       .  S
Zr121       O124   2.435       .  S
Zr121       O125   2.443       .  S
Zr121       O126   2.472       .  S
O122        C127   1.274       .  A
O123        H140   0.990       .  S
O123        H155   0.990       .  S
O124        H141   0.990       .  S
O125        H145   0.990       .  S
O125        H154   0.990       .  S
O126        C127   1.285       .  A
C127        C179   1.470       .  S
O128        H147   0.987       .  S
O128        H151   0.981       .  S
O129        H143   0.990       .  S
O129        H150   0.991       .  S
O130        C134   1.272       .  A
O131        C134   1.248   1_545  A
O132        H142   0.989       .  S
O133        H146   0.985       .  S
C134        C332   1.479   1_565  S
Zr157       O158   2.438       .  S
Zr157       O159   2.479       .  S
Zr157       O160   2.426       .  S
Zr157       O163   2.653       .  S
Zr157       O165   2.415       .  S
Zr157       O166   2.344       .  S
Zr157       O167   2.480       .  S
Zr157       O168   2.292       .  S
O158        H214   0.989       .  S
O158        H222   0.991       .  S
O159        C179   1.289   1_545  A
O160        C181   1.288       .  A
O161       Zr171   2.231       .  S
O161        C180   1.239       .  A
O162       Zr170   2.518       .  S
O162        C181   1.305       .  A
O163        C180   1.334       .  A
O164       Zr172   2.389       .  S
O164        C179   1.260       .  A
O165       Zr170   2.411       .  S
O165       Zr172   2.291   1_545  S
O166       Zr171   2.421       .  S
O166       Zr172   2.426   1_545  S
O166        H201   0.954       .  S
O167       Zr170   2.440       .  S
O167       Zr187   2.403       .  S
O167        H204   0.966       .  S
O168       Zr171   2.247       .  S
O168       Zr187   2.316       .  S
Zr169       O194   2.388       .  S
Zr169       O188   2.473       .  S
Zr169       O196   2.520   1_545  S
Zr169       O184   2.442       .  S
Zr169       O175   2.339       .  S
Zr169       O176   2.421       .  S
Zr169       O177   2.409       .  S
Zr169       O178   2.364       .  S
Zr170       O189   2.434       .  S
Zr170       O182   2.438       .  S
Zr170       O183   2.578       .  S
Zr170       O176   2.400       .  S
Zr170       O177   2.404       .  S
Zr171       O173   2.449       .  S
Zr171       O195   2.461       .  S
Zr171       O197   2.376       .  S
Zr171       O175   2.422       .  S
Zr171       O178   2.254       .  S
Zr172       O198   2.446       .  S
Zr172       O199   2.439       .  S
Zr172       O174   2.451       .  S
Zr172       O175   2.403   1_565  S
Zr172       O176   2.333   1_565  S
O173        H210   0.990       .  S
O174        H205   0.989       .  S
O174        H219   0.990       .  S
O176        H202   0.962   1_545  S
O177       Zr187   2.387       .  S
O178       Zr187   2.361       .  S
O178        H203   0.964       .  S
C180        C312   1.475       .  S
C181       C2941   1.504       .  S
O182        H218   0.989       .  S
O183        C185   1.309       .  A
O184        C185   1.285       .  A
C185        C449   1.526   1_545  S
O186       Zr187   2.436       .  S
O186        H215   0.990       .  S
Zr187       O190   2.436       .  S
Zr187       O191   2.440       .  S
Zr187       O192   2.462       .  S
O188        C193   1.296       .  A
O189        H206   0.990       .  S
O189        H221   0.990       .  S
O190        H207   0.990       .  S
O191        H211   0.991       .  S
O191        H220   0.990       .  S
O192        C193   1.288       .  A
C193        C245   1.468       .  S
O194        H213   0.981   1_545  S
O194        H217   0.980   1_545  S
O195        H209   0.991       .  S
O195        H216   0.988       .  S
O196        C200   1.287   1_565  A
O197        C200   1.249       .  A
O198        H208   0.991       .  S
O199        H212   0.989       .  S
C200        C530   1.479   1_545  S
Zr223       O224   2.438       .  S
Zr223       O225   2.466       .  S
Zr223       O226   2.409       .  S
Zr223       O229   2.543       .  S
Zr223       O231   2.422       .  S
Zr223       O232   2.385       .  S
Zr223       O233   2.454       .  S
Zr223       O234   2.378       .  S
O224        H280   0.990       .  S
O224        H288   0.990       .  S
O225        C245   1.286       .  A
O226        C247   1.283       .  A
O227       Zr237   2.340       .  S
O227        C246   1.250       .  A
O228       Zr236   2.542       .  S
O228        C247   1.309       .  A
O229        C246   1.307       .  A
O230       Zr238   2.381       .  S
O230        C245   1.261       .  A
O231       Zr236   2.402       .  S
O231       Zr238   2.329       .  S
O232       Zr237   2.385       .  S
O232       Zr238   2.412       .  S
O232        H267   0.963       .  S
O233       Zr236   2.436       .  S
O233       Zr253   2.408       .  S
O233        H270   0.966       .  S
O234       Zr237   2.385       .  S
O234       Zr253   2.410       .  S
Zr235       O260   2.403       .  S
Zr235       O254   2.476       .  S
Zr235       O262   2.456       .  S
Zr235       O250   2.432       .  S
Zr235       O242   2.410       .  S
Zr235       O243   2.394       .  S
Zr235       O244   2.396       .  S
Zr235       O241   2.281       .  S
Zr236       O255   2.436       .  S
Zr236       O248   2.437       .  S
Zr236       O249   2.592       .  S
Zr236       O242   2.394       .  S
Zr236       O243   2.403       .  S
Zr237       O239   2.436   1_545  S
Zr237       O261   2.429       .  S
Zr237       O263   2.354       .  S
Zr237       O244   2.311       .  S
Zr237       O241   2.314       .  S
Zr238       O264   2.426       .  S
Zr238       O265   2.438       .  S
Zr238       O240   2.446       .  S
Zr238       O242   2.342       .  S
Zr238       O241   2.308       .  S
O239        H276   0.990       .  S
O240        H271   0.990       .  S
O240        H285   0.989       .  S
O242        H268   0.963       .  S
O243       Zr253   2.378       .  S
O244       Zr253   2.362       .  S
O244        H269   0.963       .  S
C246        C510   1.495   1_545  S
C247       C2980   1.514       .  S
O248        H284   0.990       .  S
O249        C251   1.313       .  A
O250        C251   1.282       .  A
C251        C383   1.530       .  S
O252       Zr253   2.436       .  S
O252        H281   0.990       .  S
Zr253       O256   2.436       .  S
Zr253       O257   2.437       .  S
Zr253       O258   2.455       .  S
O254        C259   1.294       .  A
O255        H272   0.990       .  S
O255        H287   0.990       .  S
O256        H273   0.990       .  S
O257        H277   0.991       .  S
O257        H286   0.990       .  S
O258        C259   1.287       .  A
O260        H279   0.980       .  S
O260        H283   0.987       .  S
O261        H275   0.989   1_545  S
O261        H282   0.984       .  S
O262        C266   1.265       .  A
O263        C266   1.245       .  A
O264        H274   0.991       .  S
O265        H278   0.990       .  S
C266        C464   1.456   1_545  S
Zr289       O290   2.435       .  S
Zr289       O291   2.444       .  S
Zr289       O292   2.427       .  S
Zr289       O295   2.685       .  S
Zr289       O297   2.415       .  S
Zr289       O298   2.348       .  S
Zr289       O299   2.492       .  S
Zr289       O300   2.300       .  S
O290        H346   0.990       .  S
O290        H354   0.991       .  S
O291        C311   1.284   1_545  A
O292        C313   1.289       .  A
O293       Zr303   2.193       .  S
O293        C312   1.232       .  A
O294       Zr302   2.518       .  S
O294        C313   1.305       .  A
O295        C312   1.341       .  A
O296       Zr304   2.394       .  S
O296        C311   1.258       .  A
O297       Zr302   2.402       .  S
O297       Zr304   2.284   1_545  S
O298       Zr303   2.425       .  S
O298       Zr304   2.446   1_545  S
O298        H333   0.964       .  S
O299       Zr302   2.440       .  S
O299       Zr319   2.407       .  S
O299        H336   0.966       .  S
O300       Zr303   2.237       .  S
O300       Zr319   2.318       .  S
Zr301       O326   2.420       .  S
Zr301       O320   2.473       .  S
Zr301       O328   2.518       .  S
Zr301       O316   2.443       .  S
Zr301       O307   2.331       .  S
Zr301       O308   2.432       .  S
Zr301       O309   2.414       .  S
Zr301       O310   2.368       .  S
Zr302       O321   2.436       .  S
Zr302       O314   2.437       .  S
Zr302       O315   2.587       .  S
Zr302       O308   2.407       .  S
Zr302       O309   2.404       .  S
Zr303       O305   2.448       .  S
Zr303       O327   2.456       .  S
Zr303       O329   2.355       .  S
Zr303       O307   2.412       .  S
Zr303       O310   2.245       .  S
Zr304       O330   2.445       .  S
Zr304       O331   2.441       .  S
Zr304       O306   2.452       .  S
Zr304       O307   2.406   1_565  S
Zr304       O308   2.344   1_565  S
O305        H342   0.991       .  S
O306        H337   0.990       .  S
O306        H351   0.989       .  S
O308        H334   0.962   1_545  S
O309       Zr319   2.384       .  S
O310       Zr319   2.356       .  S
O310        H335   0.963       .  S
C311        C523   1.452       .  S
C313       C2929   1.504       .  S
O314        H350   0.990       .  S
O315        C317   1.310       .  A
O316        C317   1.283       .  A
O318       Zr319   2.436       .  S
O318        H347   0.990       .  S
Zr319       O322   2.436       .  S
Zr319       O323   2.439       .  S
Zr319       O324   2.460       .  S
O320        C325   1.294       .  A
O321        H338   0.990       .  S
O321        H353   0.990       .  S
O322        H339   0.990       .  S
O323        H343   0.991       .  S
O323        H352   0.990       .  S
O324        C325   1.288       .  A
C325        C377   1.463   1_556  S
O326        H345   0.990       .  S
O326        H349   0.979   1_545  S
O327        H341   0.991       .  S
O327        H348   0.990       .  S
O328        C332   1.286       .  A
O329        C332   1.249       .  A
O330        H340   0.991       .  S
O331        H344   0.990       .  S
Zr355       O356   2.440       .  S
Zr355       O357   2.477       .  S
Zr355       O358   2.413       .  S
Zr355       O361   2.523       .  S
Zr355       O363   2.422       .  S
Zr355       O364   2.403       .  S
Zr355       O365   2.457       .  S
Zr355       O366   2.394       .  S
O356        H412   0.990   1_554  S
O356        H420   0.990       .  S
O357        C377   1.289       .  A
O358        C379   1.280       .  A
O359       Zr369   2.329       .  S
O359        C378   1.251       .  A
O360       Zr368   2.540       .  S
O360        C379   1.307       .  A
O361        C378   1.303       .  A
O362       Zr370   2.365       .  S
O362        C377   1.258       .  A
O363       Zr368   2.405       .  S
O363       Zr370   2.291       .  S
O364       Zr369   2.397       .  S
O364       Zr370   2.422       .  S
O364        H399   0.964       .  S
O365       Zr368   2.449       .  S
O365       Zr385   2.429       .  S
O365        H402   0.965       .  S
O366       Zr369   2.369       .  S
O366       Zr385   2.417       .  S
Zr367       O392   2.448       .  S
Zr367       O386   2.464       .  S
Zr367       O394   2.428       .  S
Zr367       O382   2.452       .  S
Zr367       O373   2.344       .  S
Zr367       O374   2.401       .  S
Zr367       O375   2.379       .  S
Zr367       O376   2.400       .  S
Zr368       O387   2.432       .  S
Zr368       O380   2.436       .  S
Zr368       O381   2.566       .  S
Zr368       O374   2.430       .  S
Zr368       O375   2.434       .  S
Zr369       O371   2.440   1_545  S
Zr369       O393   2.427       .  S
Zr369       O395   2.342       .  S
Zr369       O373   2.365       .  S
Zr369       O376   2.302       .  S
Zr370       O396   2.397       .  S
Zr370       O397   2.414       .  S
Zr370       O372   2.443       .  S
Zr370       O373   2.400       .  S
Zr370       O374   2.344       .  S
O371        H408   0.991       .  S
O372        H403   0.989       .  S
O372        H417   0.990       .  S
O374        H400   0.964       .  S
O375       Zr385   2.402       .  S
O376       Zr385   2.387       .  S
O376        H401   0.962       .  S
C379       C3004   1.513       .  S
O380        H416   0.991       .  S
O381        C383   1.299       .  A
O382        C383   1.273       .  A
O384       Zr385   2.440       .  S
O384        H413   0.989       .  S
Zr385       O388   2.437       .  S
Zr385       O389   2.439       .  S
Zr385       O390   2.477       .  S
O386        C391   1.288       .  A
O387        H404   0.990       .  S
O387        H419   0.990       .  S
O388        H405   0.991       .  S
O389        H409   0.990       .  S
O389        H418   0.990       .  S
O390        C391   1.291       .  A
C391        C443   1.469       .  S
O392        H411   0.990       .  S
O392        H415   0.983       .  S
O393        H407   0.989   1_545  S
O393        H414   0.979       .  S
O394        C398   1.263       .  A
O395        C398   1.254       .  A
O396        H406   0.990       .  S
O397        H410   0.990       .  S
Zr421       O422   2.432       .  S
Zr421       O423   2.502       .  S
Zr421       O424   2.427       .  S
Zr421       O427   2.610       .  S
Zr421       O429   2.421       .  S
Zr421       O430   2.358       .  S
Zr421       O431   2.497       .  S
Zr421       O432   2.340       .  S
O422        H478   0.991       .  S
O422        H486   0.990       .  S
O423        C443   1.292   1_565  A
O424        C445   1.290       .  A
O425       Zr435   2.234       .  S
O425        C444   1.243       .  A
O426       Zr434   2.531       .  S
O426        C445   1.307       .  A
O427        C444   1.324       .  A
O428       Zr436   2.362       .  S
O428        C443   1.254       .  A
O429       Zr434   2.417       .  S
O429       Zr436   2.287   1_565  S
O430       Zr435   2.390       .  S
O430       Zr436   2.407   1_565  S
O430        H465   0.966       .  S
O431       Zr434   2.449       .  S
O431       Zr451   2.450       .  S
O431        H468   0.966       .  S
O432       Zr435   2.227       .  S
O432       Zr451   2.344       .  S
Zr433       O458   2.450   1_565  S
Zr433       O452   2.433       .  S
Zr433       O460   2.451   1_565  S
Zr433       O448   2.404       .  S
Zr433       O440   2.392       .  S
Zr433       O441   2.388       .  S
Zr433       O442   2.400       .  S
Zr433       O439   2.209       .  S
Zr434       O453   2.434       .  S
Zr434       O446   2.436       .  S
Zr434       O447   2.594       .  S
Zr434       O440   2.405       .  S
Zr434       O441   2.413       .  S
Zr435       O437   2.440       .  S
Zr435       O459   2.447       .  S
Zr435       O461   2.304       .  S
Zr435       O442   2.238       .  S
Zr435       O439   2.294       .  S
Zr436       O462   2.382       .  S
Zr436       O463   2.402       .  S
Zr436       O438   2.443       .  S
Zr436       O440   2.324   1_545  S
Zr436       O439   2.298   1_545  S
O437        H474   0.990       .  S
O438        H469   0.991       .  S
O438        H483   0.990       .  S
O440        H466   0.965   1_565  S
O441       Zr451   2.388       .  S
O442       Zr451   2.351       .  S
O442        H467   0.965       .  S
C445       C2920   1.514       .  S
O446        H482   0.990       .  S
O447        C449   1.302       .  A
O448        C449   1.266       .  A
O450       Zr451   2.437       .  S
O450        H479   0.990       .  S
Zr451       O454   2.436       .  S
Zr451       O455   2.439       .  S
Zr451       O456   2.541       .  S
O452        C457   1.285       .  A
O453        H470   0.990       .  S
O453        H485   0.989       .  S
O454        H471   0.990       .  S
O455        H475   0.990       .  S
O455        H484   0.990       .  S
O456        C457   1.305       .  A
C457        C509   1.471       .  S
O458        H477   0.988       .  S
O458        H481   0.986       .  S
O459        H473   0.990       .  S
O459        H480   0.990       .  S
O460        C464   1.264   1_545  A
O461        C464   1.249       .  A
O462        H472   0.990       .  S
O463        H476   0.991       .  S
Zr487       O488   2.441       .  S
Zr487       O489   2.506       .  S
Zr487       O490   2.413       .  S
Zr487       O493   2.628       .  S
Zr487       O495   2.426       .  S
Zr487       O496   2.355       .  S
Zr487       O497   2.483       .  S
Zr487       O498   2.332       .  S
O488        H544   0.991       .  S
O488        H552   0.990       .  S
O489        C509   1.297       .  A
O490        C511   1.285       .  A
O491       Zr501   2.256   1_545  S
O491        C510   1.246   1_545  A
O492       Zr500   2.514       .  S
O492        C511   1.302       .  A
O493        C510   1.322       .  A
O494       Zr502   2.381       .  S
O494        C509   1.260       .  A
O495       Zr500   2.418       .  S
O495       Zr502   2.314       .  S
O496       Zr501   2.409       .  S
O496       Zr502   2.418       .  S
O496        H531   0.962       .  S
O497       Zr500   2.452       .  S
O497       Zr517   2.440       .  S
O497        H534   0.966       .  S
O498       Zr501   2.245       .  S
O498       Zr517   2.342       .  S
Zr499       O524   2.388       .  S
Zr499       O518   2.381       .  S
Zr499       O526   2.436       .  S
Zr499       O514   2.428       .  S
Zr499       O505   2.323       .  S
Zr499       O506   2.386       .  S
Zr499       O507   2.370       .  S
Zr499       O508   2.400       .  S
Zr500       O519   2.436       .  S
Zr500       O512   2.434       .  S
Zr500       O513   2.573       .  S
Zr500       O506   2.426       .  S
Zr500       O507   2.419       .  S
Zr501       O503   2.441       .  S
Zr501       O525   2.440   1_565  S
Zr501       O527   2.302   1_565  S
Zr501       O505   2.375       .  S
Zr501       O508   2.281       .  S
Zr502       O528   2.413       .  S
Zr502       O529   2.427       .  S
Zr502       O504   2.446       .  S
Zr502       O505   2.388       .  S
Zr502       O506   2.346       .  S
O503        H540   0.990   1_565  S
O504        H535   0.990       .  S
O504        H549   0.990       .  S
O506        H532   0.963       .  S
O507       Zr517   2.402       .  S
O508       Zr517   2.375       .  S
O508        H533   0.966       .  S
C511       C2905   1.498       .  S
O512        H548   0.991       .  S
O513        C515   1.304       .  A
O514        C515   1.274       .  A
O516       Zr517   2.439       .  S
O516        H545   0.990       .  S
Zr517       O520   2.437       .  S
Zr517       O521   2.441       .  S
Zr517       O522   2.510       .  S
O518        C523   1.275       .  A
O519        H536   0.990       .  S
O519        H551   0.990       .  S
O520        H537   0.990       .  S
O521        H541   0.990       .  S
O521        H550   0.990       .  S
O522        C523   1.297       .  A
O524        H543   0.985       .  S
O524        H547   0.989       .  S
O525        H539   0.990       .  S
O525        H546   0.990       .  S
O526        C530   1.265       .  A
O527        C530   1.247   1_545  A
O528        H538   0.988       .  S
O529        H542   0.990       .  S
Zr553       O554   2.434       .  S
Zr553       O555   2.482       .  S
Zr553       O556   2.679       .  S
Zr553       O559   2.441       .  S
Zr553       O561   2.345       .  S
Zr553       O562   2.453       .  S
Zr553       O563   2.357       .  S
Zr553       O564   2.472       .  S
O554        H610   0.990       .  S
O554        H618   0.990       .  S
O555        C575   1.290       .  A
O556        C577   1.336       .  A
O557       Zr567   2.567       .  S
O557        C576   1.315       .  A
O558       Zr566   2.304       .  S
O558        C577   1.245       .  A
O559        C576   1.288       .  A
O560       Zr568   2.383       .  S
O560        C575   1.257       .  A
O561       Zr566   2.372       .  S
O561       Zr568   2.432       .  S
O562       Zr567   2.430       .  S
O562       Zr568   2.289       .  S
O562        H597   0.957       .  S
O563       Zr566   2.404       .  S
O563       Zr583   2.395       .  S
O563        H600   0.965       .  S
O564       Zr567   2.445       .  S
O564       Zr583   2.390       .  S
Zr565       O590   2.423       .  S
Zr565       O584   2.433       .  S
Zr565       O592   2.414       .  S
Zr565       O580   2.457       .  S
Zr565       O571   2.415       .  S
Zr565       O572   2.379       .  S
Zr565       O573   2.353       .  S
Zr565       O574   2.417       .  S
Zr566       O585   2.452       .  S
Zr566       O578   2.423       .  S
Zr566       O579   2.311       .  S
Zr566       O572   2.414       .  S
Zr566       O573   2.329       .  S
Zr567       O569   2.435       .  S
Zr567       O591   2.438       .  S
Zr567       O593   2.653       .  S
Zr567       O571   2.380       .  S
Zr567       O574   2.395       .  S
Zr568       O594   2.435       .  S
Zr568       O595   2.413       .  S
Zr568       O570   2.444       .  S
Zr568       O571   2.360       .  S
Zr568       O572   2.332       .  S
O569        H606   0.991       .  S
O570        H601   0.990       .  S
O570        H615   0.987       .  S
O572        H598   0.955       .  S
O573       Zr583   2.340       .  S
O574       Zr583   2.375       .  S
O574        H599   0.965       .  S
C575        C655   1.446       .  S
C576       C2893   1.517       .  S
C577        C841   1.519       .  S
O578        H614   0.984       .  S
O579        C581   1.244       .  A
O580        C581   1.274       .  A
C581        C911   1.484       .  S
O582       Zr583   2.438       .  S
O582        H611   0.990       .  S
Zr583       O586   2.436       .  S
Zr583       O587   2.439       .  S
Zr583       O588   2.458       .  S
O584        C589   1.288       .  A
O585        H602   0.984       .  S
O585        H617   0.989       .  S
O586        H603   0.990       .  S
O587        H607   0.990       .  S
O587        H616   0.990       .  S
O588        C589   1.290       .  A
C589        C773   1.452       .  S
O590        H609   0.989       .  S
O590        H613   0.985       .  S
O591        H605   0.990       .  S
O591        H612   0.990       .  S
O592        C596   1.277       .  A
O593        C596   1.327       .  A
O594        H604   0.990       .  S
O595        H608   0.990       .  S
C596       C1058   1.555       .  S
Zr619       O620   2.434       .  S
Zr619       O621   2.473       .  S
Zr619       O622   2.644       .  S
Zr619       O625   2.423       .  S
Zr619       O628   2.453       .  S
Zr619       O629   2.356       .  S
Zr619       O630   2.466       .  S
Zr619       O627   2.241       .  S
O620        H676   0.990       .  S
O620        H684   0.990       .  S
O621        C641   1.286       .  A
O622        C643   1.328       .  A
O623       Zr633   2.581       .  S
O623        C642   1.319       .  A
O624       Zr632   2.325       .  S
O624        C643   1.243       .  A
O625        C642   1.289       .  A
O626       Zr634   2.362       .  S
O626        C641   1.253       .  A
O627       Zr632   2.295       .  S
O627       Zr634   2.335       .  S
O628       Zr633   2.400       .  S
O628       Zr634   2.294       .  S
O628        H663   0.958       .  S
O629       Zr632   2.390       .  S
O629       Zr649   2.399       .  S
O629        H666   0.965       .  S
O630       Zr633   2.450       .  S
O630       Zr649   2.395       .  S
Zr631       O656   2.419       .  S
Zr631       O650   2.442       .  S
Zr631       O658   2.432       .  S
Zr631       O646   2.480       .  S
Zr631       O637   2.420       .  S
Zr631       O638   2.399       .  S
Zr631       O639   2.354       .  S
Zr631       O640   2.425       .  S
Zr632       O651   2.468       .  S
Zr632       O644   2.411       .  S
Zr632       O645   2.308       .  S
Zr632       O638   2.443       .  S
Zr632       O639   2.329       .  S
Zr633       O635   2.434       .  S
Zr633       O657   2.437       .  S
Zr633       O659   2.643       .  S
Zr633       O637   2.383       .  S
Zr633       O640   2.407       .  S
Zr634       O660   2.439       .  S
Zr634       O661   2.434       .  S
Zr634       O636   2.434       .  S
Zr634       O637   2.348       .  S
Zr634       O638   2.330       .  S
O635        H672   0.990       .  S
O636        H667   0.990       .  S
O636        H681   0.981       .  S
O638        H664   0.962       .  S
O639       Zr649   2.351       .  S
O640       Zr649   2.383       .  S
O640        H665   0.965       .  S
C641        C721   1.436       .  S
C642       C2881   1.522       .  S
C643        C973   1.521       .  S
O644        H680   0.982       .  S
O645        C647   1.244       .  A
O646        C647   1.279       .  A
C647        C845   1.512       .  S
O648       Zr649   2.436       .  S
O648        H677   0.990       .  S
Zr649       O652   2.440       .  S
Zr649       O653   2.443       .  S
Zr649       O654   2.445       .  S
O650        C655   1.288       .  A
O651        H668   0.987       .  S
O651        H683   0.992       .  S
O652        H669   0.990       .  S
O653        H673   0.990       .  S
O653        H682   0.990       .  S
O654        C655   1.285       .  A
O656        H675   0.986       .  S
O656        H679   0.984       .  S
O657        H671   0.990       .  S
O657        H678   0.990       .  S
O658        C662   1.277       .  A
O659        C662   1.322       .  A
O660        H670   0.991       .  S
O661        H674   0.990       .  S
C662        C926   1.564       .  S
Zr685       O686   2.434   1_554  S
Zr685       O687   2.489   1_554  S
Zr685       O688   2.671       .  S
Zr685       O691   2.443       .  S
Zr685       O694   2.446       .  S
Zr685       O695   2.342       .  S
Zr685       O696   2.477       .  S
Zr685       O693   2.241       .  S
O686        H742   0.990       .  S
O686        H750   0.990   1_556  S
O687        C707   1.290       .  A
O688        C709   1.333       .  A
O689       Zr699   2.564       .  S
O689        C708   1.315       .  A
O690       Zr698   2.311       .  S
O690        C709   1.241       .  A
O691        C708   1.287       .  A
O692       Zr700   2.382       .  S
O692        C707   1.255   1_554  A
O693       Zr698   2.290       .  S
O693       Zr700   2.333       .  S
O694       Zr699   2.428       .  S
O694       Zr700   2.282       .  S
O694        H729   0.954       .  S
O695       Zr698   2.409       .  S
O695       Zr715   2.394       .  S
O695        H732   0.966       .  S
O696       Zr699   2.456       .  S
O696       Zr715   2.390       .  S
Zr697       O722   2.430       .  S
Zr697       O716   2.441       .  S
Zr697       O724   2.407       .  S
Zr697       O712   2.444       .  S
Zr697       O703   2.410       .  S
Zr697       O704   2.397       .  S
Zr697       O705   2.349       .  S
Zr697       O706   2.422       .  S
Zr698       O717   2.466       .  S
Zr698       O710   2.420       .  S
Zr698       O711   2.298       .  S
Zr698       O704   2.439       .  S
Zr698       O705   2.314       .  S
Zr699       O701   2.435       .  S
Zr699       O723   2.436       .  S
Zr699       O725   2.672       .  S
Zr699       O703   2.375       .  S
Zr699       O706   2.384       .  S
Zr700       O726   2.443       .  S
Zr700       O727   2.430       .  S
Zr700       O702   2.444       .  S
Zr700       O703   2.363       .  S
Zr700       O704   2.361       .  S
O701        H738   0.990       .  S
O702        H733   0.988       .  S
O702        H747   0.989       .  S
O704        H730   0.959       .  S
O705       Zr715   2.339       .  S
O706       Zr715   2.381       .  S
O706        H731   0.964       .  S
C707        C787   1.451       .  S
C708       C3049   1.523       .  S
C709       C1039   1.519   1_554  S
O710        H746   0.989       .  S
O711        C713   1.241       .  A
O712        C713   1.270       .  A
C713        C977   1.486       .  S
O714       Zr715   2.438       .  S
O714        H743   0.990       .  S
Zr715       O718   2.440       .  S
Zr715       O719   2.443       .  S
Zr715       O720   2.436       .  S
O716        C721   1.288       .  A
O717        H734   0.981       .  S
O717        H749   0.991       .  S
O718        H735   0.990       .  S
O719        H739   0.990       .  S
O719        H748   0.991       .  S
O720        C721   1.286       .  A
O722        H741   0.989       .  S
O722        H745   0.987       .  S
O723        H737   0.990       .  S
O723        H744   0.990       .  S
O724        C728   1.275       .  A
O725        C728   1.330       .  A
O726        H736   0.990       .  S
O727        H740   0.990       .  S
C728        C860   1.564       .  S
Zr751       O752   2.434       .  S
Zr751       O753   2.497       .  S
Zr751       O754   2.652       .  S
Zr751       O757   2.420       .  S
Zr751       O760   2.452       .  S
Zr751       O761   2.357       .  S
Zr751       O762   2.466       .  S
Zr751       O759   2.238       .  S
O752        H808   0.990       .  S
O752        H816   0.990       .  S
O753        C773   1.293       .  A
O754        C775   1.330       .  A
O755       Zr765   2.568       .  S
O755        C774   1.316       .  A
O756       Zr764   2.325       .  S
O756        C775   1.245       .  A
O757        C774   1.287       .  A
O758       Zr766   2.365       .  S
O758        C773   1.258       .  A
O759       Zr764   2.299       .  S
O759       Zr766   2.335       .  S
O760       Zr765   2.419       .  S
O760       Zr766   2.297       .  S
O760        H795   0.961       .  S
O761       Zr764   2.390       .  S
O761       Zr781   2.403       .  S
O761        H798   0.965       .  S
O762       Zr765   2.445       .  S
O762       Zr781   2.393       .  S
Zr763       O788   2.420       .  S
Zr763       O782   2.443       .  S
Zr763       O790   2.427       .  S
Zr763       O778   2.464       .  S
Zr763       O769   2.423       .  S
Zr763       O770   2.403       .  S
Zr763       O771   2.361       .  S
Zr763       O772   2.419       .  S
Zr764       O783   2.466       .  S
Zr764       O776   2.413       .  S
Zr764       O777   2.309       .  S
Zr764       O770   2.436       .  S
Zr764       O771   2.334       .  S
Zr765       O767   2.434       .  S
Zr765       O789   2.437       .  S
Zr765       O791   2.646       .  S
Zr765       O769   2.380       .  S
Zr765       O772   2.408       .  S
Zr766       O792   2.436       .  S
Zr766       O793   2.427       .  S
Zr766       O768   2.438       .  S
Zr766       O769   2.346       .  S
Zr766       O770   2.319       .  S
O767        H804   0.990       .  S
O768        H799   0.991       .  S
O768        H813   0.983       .  S
O770        H796   0.961       .  S
O771       Zr781   2.353       .  S
O772       Zr781   2.383       .  S
O772        H797   0.965       .  S
C774       C2869   1.515       .  S
C775        C907   1.522       .  S
O776        H812   0.984       .  S
O777        C779   1.245       .  A
O778        C779   1.276       .  A
C779       C1043   1.503       .  S
O780       Zr781   2.437       .  S
O780        H809   0.990       .  S
Zr781       O784   2.437       .  S
Zr781       O785   2.443       .  S
Zr781       O786   2.448       .  S
O782        C787   1.286       .  A
O783        H800   0.986       .  S
O783        H815   0.991       .  S
O784        H801   0.990       .  S
O785        H805   0.990       .  S
O785        H814   0.990       .  S
O786        C787   1.287       .  A
O788        H807   0.987       .  S
O788        H811   0.986   1_556  S
O789        H803   0.990       .  S
O789        H810   0.990       .  S
O790        C794   1.277       .  A
O791        C794   1.323       .  A
O792        H802   0.990       .  S
O793        H806   0.990       .  S
C794        C992   1.563   1_556  S
Zr817       O818   2.433       .  S
Zr817       O819   2.478       .  S
Zr817       O820   2.643       .  S
Zr817       O823   2.422       .  S
Zr817       O826   2.454       .  S
Zr817       O827   2.358       .  S
Zr817       O828   2.462       .  S
Zr817       O825   2.242       .  S
O818        H874   0.990       .  S
O818        H882   0.990       .  S
O819        C839   1.287       .  A
O820        C841   1.328       .  A
O821       Zr831   2.571       .  S
O821        C840   1.316       .  A
O822       Zr830   2.320       .  S
O822        C841   1.245       .  A
O823        C840   1.288       .  A
O824       Zr832   2.361       .  S
O824        C839   1.254       .  A
O825       Zr830   2.308       .  S
O825       Zr832   2.340       .  S
O826       Zr831   2.407       .  S
O826       Zr832   2.290       .  S
O826        H861   0.959       .  S
O827       Zr830   2.394       .  S
O827       Zr847   2.397       .  S
O827        H864   0.965       .  S
O828       Zr831   2.445       .  S
O828       Zr847   2.390       .  S
Zr829       O854   2.420       .  S
Zr829       O848   2.436       .  S
Zr829       O856   2.431       .  S
Zr829       O844   2.469       .  S
Zr829       O835   2.418       .  S
Zr829       O836   2.410       .  S
Zr829       O837   2.362       .  S
Zr829       O838   2.418       .  S
Zr830       O849   2.464       .  S
Zr830       O842   2.412       .  S
Zr830       O843   2.309       .  S
Zr830       O836   2.435       .  S
Zr830       O837   2.333       .  S
Zr831       O833   2.436       .  S
Zr831       O855   2.437       .  S
Zr831       O857   2.641       .  S
Zr831       O835   2.382       .  S
Zr831       O838   2.406       .  S
Zr832       O858   2.436       .  S
Zr832       O859   2.418       .  S
Zr832       O834   2.444       .  S
Zr832       O835   2.346       .  S
Zr832       O836   2.311       .  S
O833        H870   0.990       .  S
O834        H865   0.991       .  S
O834        H879   0.984       .  S
O836        H862   0.962       .  S
O837       Zr847   2.357       .  S
O838       Zr847   2.385       .  S
O838        H863   0.965       .  S
C839        C919   1.440       .  S
C840       C3013   1.515       .  S
O842        H878   0.987       .  S
O843        C845   1.246       .  A
O844        C845   1.277       .  A
O846       Zr847   2.436       .  S
O846        H875   0.990       .  S
Zr847       O850   2.438       .  S
Zr847       O851   2.440       .  S
Zr847       O852   2.438       .  S
O848        C853   1.285       .  A
O849        H866   0.989       .  S
O849        H881   0.991       .  S
O850        H867   0.990       .  S
O851        H871   0.990       .  S
O851        H880   0.990       .  S
O852        C853   1.284       .  A
C853        C971   1.442       .  S
O854        H873   0.985       .  S
O854        H877   0.986       .  S
O855        H869   0.990       .  S
O855        H876   0.990       .  S
O856        C860   1.279       .  A
O857        C860   1.321       .  A
O858        H868   0.990       .  S
O859        H872   0.990       .  S
Zr883       O884   2.433       .  S
Zr883       O885   2.484       .  S
Zr883       O886   2.665       .  S
Zr883       O889   2.441       .  S
Zr883       O892   2.448       .  S
Zr883       O893   2.341       .  S
Zr883       O894   2.472       .  S
Zr883       O891   2.241       .  S
O884        H940   0.990       .  S
O884        H948   0.990       .  S
O885        C905   1.289       .  A
O886        C907   1.331       .  A
O887       Zr897   2.560       .  S
O887        C906   1.315       .  A
O888       Zr896   2.315       .  S
O888        C907   1.241       .  A
O889        C906   1.288       .  A
O890       Zr898   2.374       .  S
O890        C905   1.258       .  A
O891       Zr896   2.289       .  S
O891       Zr898   2.333       .  S
O892       Zr897   2.439       .  S
O892       Zr898   2.285       .  S
O892        H927   0.959       .  S
O893       Zr896   2.405       .  S
O893       Zr913   2.392       .  S
O893        H930   0.966       .  S
O894       Zr897   2.453       .  S
O894       Zr913   2.389       .  S
Zr895       O920   2.436       .  S
Zr895       O914   2.444       .  S
Zr895       O922   2.415       .  S
Zr895       O910   2.446       .  S
Zr895       O901   2.407       .  S
Zr895       O902   2.404       .  S
Zr895       O903   2.344       .  S
Zr895       O904   2.427       .  S
Zr896       O915   2.468       .  S
Zr896       O908   2.422       .  S
Zr896       O909   2.296       .  S
Zr896       O902   2.444       .  S
Zr896       O903   2.317       .  S
Zr897       O899   2.435       .  S
Zr897       O921   2.437       .  S
Zr897       O923   2.667       .  S
Zr897       O901   2.374       .  S
Zr897       O904   2.394       .  S
Zr898       O924   2.443       .  S
Zr898       O925   2.431       .  S
Zr898       O900   2.434       .  S
Zr898       O901   2.351       .  S
Zr898       O902   2.359       .  S
O899        H936   0.990       .  S
O900        H931   0.990       .  S
O900        H945   0.984       .  S
O902        H928   0.962       .  S
O903       Zr913   2.337       .  S
O904       Zr913   2.378       .  S
O904        H929   0.965       .  S
C905       C1051   1.450       .  S
C906       C2857   1.516       .  S
O908        H944   0.989       .  S
O909        C911   1.242       .  A
O910        C911   1.271       .  A
O912       Zr913   2.437       .  S
O912        H941   0.990       .  S
Zr913       O916   2.437       .  S
Zr913       O917   2.443       .  S
Zr913       O918   2.441       .  S
O914        C919   1.290       .  A
O915        H932   0.982       .  S
O915        H947   0.991       .  S
O916        H933   0.990       .  S
O917        H937   0.990       .  S
O917        H946   0.990       .  S
O918        C919   1.287       .  A
O920        H939   0.989       .  S
O920        H943   0.987       .  S
O921        H935   0.990       .  S
O921        H942   0.990       .  S
O922        C926   1.275       .  A
O923        C926   1.329       .  A
O924        H934   0.990       .  S
O925        H938   0.990       .  S
Zr949       O950   2.435       .  S
Zr949       O951   2.478       .  S
Zr949       O952   2.680       .  S
Zr949       O955   2.438       .  S
Zr949       O957   2.344       .  S
Zr949       O958   2.458       .  S
Zr949       O959   2.353       .  S
Zr949       O960   2.477       .  S
O950       H1006   0.991       .  S
O950       H1014   0.990       .  S
O951        C971   1.289       .  A
O952        C973   1.335       .  A
O953       Zr963   2.555       .  S
O953        C972   1.310       .  A
O954       Zr962   2.306       .  S
O954        C973   1.242       .  A
O955        C972   1.284       .  A
O956       Zr964   2.379       .  S
O956        C971   1.258       .  A
O957       Zr962   2.382       .  S
O957       Zr964   2.427       .  S
O958       Zr963   2.438       .  S
O958       Zr964   2.285       .  S
O958        H993   0.958       .  S
O959       Zr962   2.405       .  S
O959       Zr979   2.396       .  S
O959        H996   0.966       .  S
O960       Zr963   2.451       .  S
O960       Zr979   2.393       .  S
Zr961       O986   2.418       .  S
Zr961       O980   2.441       .  S
Zr961       O988   2.420       .  S
Zr961       O976   2.452       .  S
Zr961       O967   2.411       .  S
Zr961       O968   2.386       .  S
Zr961       O969   2.344       .  S
Zr961       O970   2.417       .  S
Zr962       O981   2.461       .  S
Zr962       O974   2.428       .  S
Zr962       O975   2.301       .  S
Zr962       O968   2.428       .  S
Zr962       O969   2.321       .  S
Zr963       O965   2.434       .  S
Zr963       O987   2.439       .  S
Zr963       O989   2.660       .  S
Zr963       O967   2.376       .  S
Zr963       O970   2.391       .  S
Zr964       O990   2.435       .  S
Zr964       O991   2.413       .  S
Zr964       O966   2.443       .  S
Zr964       O967   2.353       .  S
Zr964       O968   2.338       .  S
O965       H1002   0.990       .  S
O966        H997   0.990       .  S
O966       H1011   0.987       .  S
O968        H994   0.958       .  S
O969       Zr979   2.328       .  S
O970       Zr979   2.379       .  S
O970        H995   0.965       .  S
C972       C2848   1.515       .  S
O974       H1010   0.992       .  S
O975        C977   1.242       .  A
O976        C977   1.272       .  A
O978       Zr979   2.435       .  S
O978       H1007   0.990       .  S
Zr979       O982   2.437       .  S
Zr979       O983   2.439       .  S
Zr979       O984   2.451       .  S
O980        C985   1.289       .  A
O981        H998   0.980       .  S
O981       H1013   0.990       .  S
O982        H999   0.990       .  S
O983       H1003   0.990       .  S
O983       H1012   0.991       .  S
O984        C985   1.288       .  A
C985       C1037   1.448       .  S
O986       H1005   0.989       .  S
O986       H1009   0.986       .  S
O987       H1001   0.990       .  S
O987       H1008   0.990       .  S
O988        C992   1.278       .  A
O989        C992   1.328       .  A
O990       H1000   0.990       .  S
O991       H1004   0.990       .  S
Zr1015     O1016   2.436   1_556  S
Zr1015     O1017   2.492   1_556  S
Zr1015     O1018   2.649   1_556  S
Zr1015     O1021   2.427       .  S
Zr1015     O1024   2.450       .  S
Zr1015     O1025   2.359       .  S
Zr1015     O1026   2.466       .  S
Zr1015     O1023   2.239       .  S
O1016      H1072   0.990       .  S
O1016      H1080   0.990       .  S
O1017      C1037   1.291       .  A
O1018      C1039   1.329   1_554  A
O1019     Zr1029   2.565       .  S
O1019      C1038   1.315       .  A
O1020     Zr1028   2.322       .  S
O1020      C1039   1.244       .  A
O1021      C1038   1.290       .  A
O1022     Zr1030   2.364       .  S
O1022      C1037   1.257   1_556  A
O1023     Zr1028   2.293       .  S
O1023     Zr1030   2.333       .  S
O1024     Zr1029   2.410       .  S
O1024     Zr1030   2.294       .  S
O1024      H1059   0.960       .  S
O1025     Zr1028   2.392       .  S
O1025     Zr1045   2.399       .  S
O1025      H1062   0.965       .  S
O1026     Zr1029   2.444       .  S
O1026     Zr1045   2.400       .  S
Zr1027     O1052   2.424       .  S
Zr1027     O1046   2.448       .  S
Zr1027     O1054   2.429       .  S
Zr1027     O1042   2.465       .  S
Zr1027     O1033   2.421       .  S
Zr1027     O1034   2.405       .  S
Zr1027     O1035   2.357       .  S
Zr1027     O1036   2.422       .  S
Zr1028     O1047   2.464       .  S
Zr1028     O1040   2.411       .  S
Zr1028     O1041   2.304       .  S
Zr1028     O1034   2.434       .  S
Zr1028     O1035   2.331       .  S
Zr1029     O1031   2.433       .  S
Zr1029     O1053   2.436       .  S
Zr1029     O1055   2.628       .  S
Zr1029     O1033   2.386       .  S
Zr1029     O1036   2.408       .  S
Zr1030     O1056   2.436       .  S
Zr1030     O1057   2.428       .  S
Zr1030     O1032   2.439       .  S
Zr1030     O1033   2.343       .  S
Zr1030     O1034   2.317       .  S
O1031      H1068   0.990       .  S
O1032      H1063   0.991       .  S
O1032      H1077   0.982       .  S
O1034      H1060   0.963       .  S
O1035     Zr1045   2.349       .  S
O1036     Zr1045   2.381       .  S
O1036      H1061   0.965       .  S
C1038      C2833   1.520   1_556  S
O1040      H1076   0.983   1_556  S
O1041      C1043   1.245       .  A
O1042      C1043   1.277       .  A
O1044     Zr1045   2.435       .  S
O1044      H1073   0.990       .  S
Zr1045     O1048   2.441       .  S
Zr1045     O1049   2.442       .  S
Zr1045     O1050   2.448       .  S
O1046      C1051   1.287       .  A
O1047      H1064   0.986       .  S
O1047      H1079   0.991       .  S
O1048      H1065   0.990       .  S
O1049      H1069   0.990       .  S
O1049      H1078   0.990       .  S
O1050      C1051   1.286       .  A
O1052      H1071   0.987       .  S
O1052      H1075   0.987       .  S
O1053      H1067   0.990       .  S
O1053      H1074   0.990       .  S
O1054      C1058   1.277       .  A
O1055      C1058   1.319       .  A
O1056      H1066   0.990       .  S
O1057      H1070   0.990       .  S
C1081      N1082   1.368       .  A
C1081      N1086   1.369       .  A
C1081      C2908   1.503       .  S
N1082      C1083   1.357       .  A
C1083      N1084   1.349       .  A
C1083      C2809   1.475       .  S
N1084      C1085   1.354       .  A
C1085      N1086   1.365       .  A
C1085      C2821   1.485       .  S
C1087      N1088   1.369       .  A
C1087      N1092   1.370       .  A
C1087      C2953   1.504       .  S
N1088      C1089   1.364       .  A
C1089      N1090   1.353       .  A
C1089      C2797   1.488       .  S
N1090      C1091   1.350       .  A
C1091      N1092   1.360       .  A
C1091      C2812   1.476       .  S
C1093      N1094   1.382       .  A
C1093      N1098   1.366       .  A
C1093      C2836   1.512       .  S
N1094      C1095   1.375       .  A
C1095      N1096   1.355       .  A
C1095      C2785   1.511       .  S
N1096      C1097   1.358       .  A
C1097      N1098   1.361       .  A
C1097      C2800   1.488       .  S
C1099      N1100   1.383       .  A
C1099      N1104   1.360       .  A
C1099      C2896   1.509       .  S
N1100      C1101   1.381       .  A
C1101      N1102   1.357       .  A
C1101      C2788   1.511       .  S
N1102      C1103   1.358       .  A
C1103      N1104   1.357       .  A
C1103      C2824   1.490       .  S
C1105      N1106   1.362       .  A
C1105      N1110   1.383       .  A
C1105      C2884   1.515       .  S
N1106      C1107   1.357       .  A
C1107      N1108   1.354       .  A
C1107      C2776   1.484       .  S
N1108      C1109   1.356       .  A
C1109      N1110   1.378       .  A
C1109      C2761   1.509       .  S
C1111      N1112   1.361       .  A
C1111      N1116   1.381       .  A
C1111      C2860   1.506       .  S
N1112      C1113   1.358       .  A
C1113      N1114   1.357       .  A
C1113      C2749   1.492       .  S
N1114      C1115   1.356       .  A
C1115      N1116   1.378       .  A
C1115      C2764   1.505       .  S
C1117      N1118   1.365       .  A
C1117      N1122   1.373       .  A
C1117      C2737   1.505       .  S
N1118      C1119   1.362       .  A
C1119      N1120   1.356       .  A
C1119      C2773   1.486       .  S
N1120      C1121   1.355       .  A
C1121      N1122   1.365       .  A
C1121      C2728   1.494       .  S
C1123      N1124   1.377       .  A
C1123      N1128   1.369       .  A
C1123      C2713   1.511       .  S
N1124      C1125   1.368       .  A
C1125      N1126   1.350       .  A
C1125      C2725   1.491       .  S
N1126      C1127   1.352       .  A
C1127      N1128   1.365       .  A
C1127      C2752   1.489       .  S
C1129      N1130   1.365       .  A
C1129      N1134   1.383       .  A
C1129      C2845   1.520       .  S
N1130      C1131   1.358       .  A
C1131      N1132   1.355       .  A
C1131      C2701   1.492       .  S
N1132      C1133   1.353       .  A
C1133      N1134   1.377       .  A
C1133      C2689   1.505       .  S
C1135      N1136   1.382       .  A
C1135      N1140   1.358       .  A
C1135      C2872   1.511       .  S
N1136      C1137   1.379       .  A
C1137      N1138   1.358       .  A
C1137      C2692   1.507       .  S
N1138      C1139   1.358       .  A
C1139      N1140   1.354       .  A
C1139      C2677   1.487       .  S
C1141      N1142   1.364       .  A
C1141      N1146   1.372       .  A
C1141      C2665   1.493       .  S
N1142      C1143   1.359       .  A
C1143      N1144   1.356       .  A
C1143      C2704   1.486       .  S
N1144      C1145   1.353       .  A
C1145      N1146   1.363       .  A
C1145      C2653   1.487       .  S
C1147      N1148   1.376       .  A
C1147      N1152   1.367       .  A
C1147      C2641   1.499       .  S
N1148      C1149   1.367       .  A
C1149      N1150   1.350       .  A
C1149      C2656   1.491       .  S
N1150      C1151   1.349       .  A
C1151      N1152   1.362       .  A
C1151      C2680   1.486       .  S
C1153      N1154   1.365       .  A
C1153      N1158   1.370       .  A
C1153      C2617   1.496       .  S
N1154      C1155   1.360       .  A
C1155      N1156   1.356       .  A
C1155      C2629   1.485       .  S
N1156      C1157   1.354       .  A
C1157      N1158   1.361       .  A
C1157      C2605   1.486       .  S
C1159      N1160   1.372       .  A
C1159      N1164   1.367       .  A
C1159      C2581   1.502       .  S
N1160      C1161   1.362       .  A
C1161      N1162   1.351       .  A
C1161      C2608   1.481       .  S
N1162      C1163   1.354       .  A
C1163      N1164   1.363       .  A
C1163      C2593   1.486       .  S
C1165      N1166   1.381       .  A
C1165      N1170   1.365       .  A
C1165      C2569   1.516       .  S
N1166      C1167   1.375       .  A
C1167      N1168   1.353       .  A
C1167      C2557   1.501       .  S
N1168      C1169   1.355       .  A
C1169      N1170   1.360       .  A
C1169      C2632   1.484       .  S
C1171      N1172   1.362       .  A
C1171      N1176   1.378       .  A
C1171      C2545   1.502       .  S
N1172      C1173   1.358       .  A
C1173      N1174   1.356       .  A
C1173      C2596   1.491       .  S
N1174      C1175   1.355       .  A
C1175      N1176   1.374       .  A
C1175      C2560   1.500       .  S
C1177      N1178   1.376       .  A
C1177      N1182   1.376       .  A
C1177      C2968   1.520       .  S
N1178      C1179   1.364       .  A
C1179      N1180   1.347       .  A
C1179      C2521   1.486       .  S
N1180      C1181   1.352       .  A
C1181      N1182   1.372       .  A
C1181      C2533   1.500       .  S
C1183      N1184   1.372       .  A
C1183      N1188   1.361       .  A
C1183      C2932   1.490       .  S
N1184      C1185   1.366   1_545  A
C1185      N1186   1.355       .  A
C1185      C2524   1.490       .  S
N1186      C1187   1.356       .  A
C1187      N1188   1.357   1_565  A
C1187      C2509   1.482       .  S
C1189      N1190   1.381       .  A
C1189      N1194   1.360       .  A
C1189      C2497   1.509       .  S
N1190      C1191   1.378       .  A
C1191      N1192   1.358       .  A
C1191      C2488   1.508       .  S
N1192      C1193   1.359       .  A
C1193      N1194   1.357       .  A
C1193      C2536   1.498       .  S
C1195      N1196   1.385       .  A
C1195      N1200   1.362       .  A
C1195      C2476   1.516       .  S
N1196      C1197   1.380       .  A
C1197      N1198   1.354       .  A
C1197      C2485   1.511       .  S
N1198      C1199   1.353       .  A
C1199      N1200   1.354       .  A
C1199      C2512   1.482       .  S
C1201      N1202   1.373       .  A
C1201      N1206   1.365       .  A
C1201      C2917   1.508       .  S
N1202      C1203   1.366       .  A
C1203      N1204   1.353       .  A
C1203      C2449   1.487       .  S
N1204      C1205   1.356       .  A
C1205      N1206   1.362       .  A
C1205      C2464   1.489       .  S
C1207      N1208   1.371       .  A
C1207      N1212   1.366       .  A
C1207      C2944   1.496       .  S
N1208      C1209   1.365       .  A
C1209      N1210   1.355       .  A
C1209      C2452   1.488       .  S
N1210      C1211   1.357       .  A
C1211      N1212   1.363       .  A
C1211      C2437   1.489       .  S
C1213      N1214   1.380       .  A
C1213      N1218   1.363       .  A
C1213      C2425   1.517       .  S
N1214      C1215   1.375       .  A
C1215      N1216   1.354   1_565  A
C1215      C2416   1.500       .  S
N1216      C1217   1.356   1_545  A
C1217      N1218   1.358       .  A
C1217      C2461   1.489   1_565  S
C1219      N1220   1.363       .  A
C1219      N1224   1.379       .  A
C1219      C2401   1.508       .  S
N1220      C1221   1.359       .  A
C1221      N1222   1.357       .  A
C1221      C2440   1.489       .  S
N1222      C1223   1.357       .  A
C1223      N1224   1.375       .  A
C1223      C2413   1.504       .  S
Zr1225     O1226   2.432   1_556  S
Zr1225     O1227   2.512   1_556  S
Zr1225     O1228   2.669   1_556  S
Zr1225     O1231   2.441       .  S
Zr1225     O1234   2.461       .  S
Zr1225     O1235   2.345       .  S
Zr1225     O1236   2.478       .  S
Zr1225     O1233   2.235       .  S
O1226      H1282   0.990       .  S
O1226      H1290   0.990       .  S
O1227      C1247   1.295       .  A
O1228      C1249   1.331   1_554  A
O1229     Zr1239   2.523       .  S
O1229      C1248   1.304       .  A
O1230     Zr1238   2.300       .  S
O1230      C1249   1.239       .  A
O1231      C1248   1.282       .  A
O1232     Zr1240   2.380       .  S
O1232      C1247   1.261   1_556  A
O1233     Zr1238   2.298       .  S
O1233     Zr1240   2.332       .  S
O1234     Zr1239   2.459       .  S
O1234     Zr1240   2.282       .  S
O1234      H1269   0.963       .  S
O1235     Zr1238   2.402       .  S
O1235     Zr1255   2.389       .  S
O1235      H1272   0.967       .  S
O1236     Zr1239   2.457       .  S
O1236     Zr1255   2.395       .  S
Zr1237     O1262   2.424       .  S
Zr1237     O1256   2.385       .  S
Zr1237     O1264   2.356       .  S
Zr1237     O1252   2.435       .  S
Zr1237     O1243   2.408       .  S
Zr1237     O1244   2.385       .  S
Zr1237     O1245   2.349       .  S
Zr1237     O1246   2.421       .  S
Zr1238     O1257   2.463   1_565  S
Zr1238     O1250   2.421       .  S
Zr1238     O1251   2.293   1_565  S
Zr1238     O1244   2.418       .  S
Zr1238     O1245   2.317       .  S
Zr1239     O1241   2.435       .  S
Zr1239     O1263   2.435       .  S
Zr1239     O1265   2.674       .  S
Zr1239     O1243   2.371       .  S
Zr1239     O1246   2.374       .  S
Zr1240     O1266   2.436       .  S
Zr1240     O1267   2.420       .  S
Zr1240     O1242   2.442       .  S
Zr1240     O1243   2.358       .  S
Zr1240     O1244   2.323       .  S
O1241      H1278   0.990       .  S
O1242      H1273   0.991       .  S
O1242      H1287   0.987       .  S
O1244      H1270   0.959       .  S
O1245     Zr1255   2.344       .  S
O1246     Zr1255   2.369       .  S
O1246      H1271   0.964       .  S
C1247      C1327   1.472       .  S
C1248      C2389   1.511       .  S
C1249      C1579   1.508   1_566  S
O1250      H1286   0.989   1_556  S
O1251      C1253   1.242       .  A
O1252      C1253   1.267   1_565  A
C1253      C1649   1.473       .  S
O1254     Zr1255   2.437       .  S
O1254      H1283   0.990       .  S
Zr1255     O1258   2.439       .  S
Zr1255     O1259   2.442       .  S
Zr1255     O1260   2.457       .  S
O1256      C1261   1.277       .  A
O1257      H1274   0.979       .  S
O1257      H1289   0.991       .  S
O1258      H1275   0.990       .  S
O1259      H1279   0.990       .  S
O1259      H1288   0.990       .  S
O1260      C1261   1.289       .  A
C1261      C1379   1.422   1_565  S
O1262      H1281   0.990       .  S
O1262      H1285   0.984       .  S
O1263      H1277   0.990       .  S
O1263      H1284   0.990       .  S
O1264      C1268   1.263       .  A
O1265      C1268   1.328       .  A
O1266      H1276   0.990       .  S
O1267      H1280   0.990       .  S
C1268      C1730   1.552       .  S
Zr1291     O1292   2.436       .  S
Zr1291     O1293   2.515       .  S
Zr1291     O1294   2.646       .  S
Zr1291     O1297   2.424       .  S
Zr1291     O1300   2.439       .  S
Zr1291     O1301   2.363       .  S
Zr1291     O1302   2.471       .  S
Zr1291     O1299   2.239       .  S
O1292      H1348   0.990       .  S
O1292      H1356   0.990       .  S
O1293      C1313   1.298   1_565  A
O1294      C1315   1.329       .  A
O1295     Zr1305   2.556       .  S
O1295      C1314   1.313       .  A
O1296     Zr1304   2.313       .  S
O1296      C1315   1.242       .  A
O1297      C1314   1.287       .  A
O1298     Zr1306   2.373       .  S
O1298      C1313   1.258       .  A
O1299     Zr1304   2.306       .  S
O1299     Zr1306   2.333   1_565  S
O1300     Zr1305   2.416       .  S
O1300     Zr1306   2.295   1_565  S
O1300      H1335   0.962       .  S
O1301     Zr1304   2.387       .  S
O1301     Zr1321   2.397       .  S
O1301      H1338   0.965       .  S
O1302     Zr1305   2.436       .  S
O1302     Zr1321   2.416       .  S
Zr1303     O1328   2.423   1_565  S
Zr1303     O1322   2.454       .  S
Zr1303     O1330   2.431       .  S
Zr1303     O1318   2.472       .  S
Zr1303     O1309   2.426       .  S
Zr1303     O1310   2.407       .  S
Zr1303     O1311   2.352       .  S
Zr1303     O1312   2.425       .  S
Zr1304     O1323   2.465       .  S
Zr1304     O1316   2.402       .  S
Zr1304     O1317   2.307       .  S
Zr1304     O1310   2.431       .  S
Zr1304     O1311   2.330       .  S
Zr1305     O1307   2.433       .  S
Zr1305     O1329   2.437       .  S
Zr1305     O1331   2.609       .  S
Zr1305     O1309   2.392       .  S
Zr1305     O1312   2.415       .  S
Zr1306     O1332   2.436       .  S
Zr1306     O1333   2.418       .  S
Zr1306     O1308   2.441       .  S
Zr1306     O1309   2.340   1_545  S
Zr1306     O1310   2.329   1_545  S
O1307      H1344   0.990       .  S
O1308      H1339   0.991       .  S
O1308      H1353   0.984       .  S
O1310      H1336   0.964   1_565  S
O1311     Zr1321   2.343       .  S
O1312     Zr1321   2.376       .  S
O1312      H1337   0.965       .  S
C1313      C1459   1.463       .  S
C1314      C2500   1.513       .  S
C1315      C1513   1.510       .  S
O1316      H1352   0.981       .  S
O1317      C1319   1.244       .  A
O1318      C1319   1.277       .  A
C1319      C1583   1.506   1_565  S
O1320     Zr1321   2.437       .  S
O1320      H1349   0.990       .  S
Zr1321     O1324   2.436       .  S
Zr1321     O1325   2.442       .  S
Zr1321     O1326   2.473       .  S
O1322      C1327   1.289       .  A
O1323      H1340   0.985       .  S
O1323      H1355   0.991       .  S
O1324      H1341   0.991       .  S
O1325      H1345   0.990       .  S
O1325      H1354   0.990       .  S
O1326      C1327   1.291       .  A
O1328      H1347   0.987       .  S
O1328      H1351   0.987       .  S
O1329      H1343   0.990       .  S
O1329      H1350   0.990       .  S
O1330      C1334   1.276       .  A
O1331      C1334   1.315       .  A
O1332      H1342   0.990       .  S
O1333      H1346   0.990       .  S
C1334      C1664   1.538   1_565  S
Zr1357     O1358   2.437       .  S
Zr1357     O1359   2.445       .  S
Zr1357     O1360   2.605       .  S
Zr1357     O1363   2.414       .  S
Zr1357     O1366   2.438       .  S
Zr1357     O1367   2.369       .  S
Zr1357     O1368   2.445       .  S
Zr1357     O1365   2.261       .  S
O1358      H1414   0.990       .  S
O1358      H1422   0.990       .  S
O1359      C1379   1.285       .  A
O1360      C1381   1.321       .  A
O1361     Zr1371   2.555       .  S
O1361      C1380   1.312       .  A
O1362     Zr1370   2.319       .  S
O1362      C1381   1.247       .  A
O1363      C1380   1.287       .  A
O1364     Zr1372   2.381       .  S
O1364      C1379   1.260       .  A
O1365     Zr1370   2.309       .  S
O1365     Zr1372   2.320       .  S
O1366     Zr1371   2.397       .  S
O1366     Zr1372   2.321       .  S
O1366      H1401   0.958       .  S
O1367     Zr1370   2.401       .  S
O1367     Zr1387   2.401       .  S
O1367      H1404   0.965       .  S
O1368     Zr1371   2.451       .  S
O1368     Zr1387   2.401       .  S
Zr1369     O1394   2.418       .  S
Zr1369     O1388   2.410       .  S
Zr1369     O1396   2.438       .  S
Zr1369     O1384   2.484       .  S
Zr1369     O1375   2.413       .  S
Zr1369     O1376   2.403       .  S
Zr1369     O1377   2.386       .  S
Zr1369     O1378   2.412       .  S
Zr1370     O1389   2.456       .  S
Zr1370     O1382   2.428       .  S
Zr1370     O1383   2.316       .  S
Zr1370     O1376   2.419       .  S
Zr1370     O1377   2.344       .  S
Zr1371     O1373   2.435       .  S
Zr1371     O1395   2.437       .  S
Zr1371     O1397   2.628       .  S
Zr1371     O1375   2.396       .  S
Zr1371     O1378   2.402       .  S
Zr1372     O1398   2.434   1_545  S
Zr1372     O1399   2.417   1_545  S
Zr1372     O1374   2.449   1_545  S
Zr1372     O1375   2.367       .  S
Zr1372     O1376   2.335       .  S
O1373      H1410   0.990       .  S
O1374      H1405   0.990       .  S
O1374      H1419   0.989       .  S
O1376      H1402   0.963       .  S
O1377     Zr1387   2.368       .  S
O1378     Zr1387   2.418       .  S
O1378      H1403   0.967       .  S
C1380      C2404   1.514       .  S
C1381      C1645   1.510       .  S
O1382      H1418   0.983       .  S
O1383      C1385   1.247       .  A
O1384      C1385   1.279       .  A
C1385      C1715   1.492       .  S
O1386     Zr1387   2.435       .  S
O1386      H1415   0.990       .  S
Zr1387     O1390   2.437       .  S
Zr1387     O1391   2.437       .  S
Zr1387     O1392   2.446       .  S
O1388      C1393   1.267       .  A
O1389      H1406   0.989       .  S
O1389      H1421   0.991       .  S
O1390      H1407   0.990       .  S
O1391      H1411   0.990       .  S
O1391      H1420   0.990       .  S
O1392      C1393   1.272       .  A
C1393      C1445   1.448       .  S
O1394      H1413   0.988       .  S
O1394      H1417   0.987       .  S
O1395      H1409   0.990       .  S
O1395      H1416   0.990       .  S
O1396      C1400   1.290       .  A
O1397      C1400   1.318       .  A
O1398      H1408   0.990       .  S
O1399      H1412   0.983       .  S
C1400      C1532   1.569   1_545  S
Zr1423     O1424   2.430       .  S
Zr1423     O1425   2.478       .  S
Zr1423     O1426   2.615       .  S
Zr1423     O1429   2.424       .  S
Zr1423     O1432   2.429       .  S
Zr1423     O1433   2.380       .  S
Zr1423     O1434   2.471       .  S
Zr1423     O1431   2.237       .  S
O1424      H1480   0.990       .  S
O1424      H1488   0.990       .  S
O1425      C1445   1.290       .  A
O1426      C1447   1.320       .  A
O1427     Zr1437   2.535       .  S
O1427      C1446   1.306       .  A
O1428     Zr1436   2.292       .  S
O1428      C1447   1.247       .  A
O1429      C1446   1.281       .  A
O1430     Zr1438   2.366       .  S
O1430      C1445   1.263       .  A
O1431     Zr1436   2.330       .  S
O1431     Zr1438   2.331       .  S
O1432     Zr1437   2.440       .  S
O1432     Zr1438   2.284       .  S
O1432      H1467   0.963       .  S
O1433     Zr1436   2.379       .  S
O1433     Zr1453   2.432       .  S
O1433      H1470   0.967       .  S
O1434     Zr1437   2.434       .  S
O1434     Zr1453   2.412       .  S
Zr1435     O1460   2.422       .  S
Zr1435     O1454   2.421       .  S
Zr1435     O1462   2.429       .  S
Zr1435     O1450   2.464       .  S
Zr1435     O1441   2.406       .  S
Zr1435     O1442   2.387       .  S
Zr1435     O1443   2.359       .  S
Zr1435     O1444   2.420       .  S
Zr1436     O1455   2.456       .  S
Zr1436     O1448   2.460   1_545  S
Zr1436     O1449   2.304       .  S
Zr1436     O1442   2.437       .  S
Zr1436     O1443   2.307       .  S
Zr1437     O1439   2.435       .  S
Zr1437     O1461   2.440       .  S
Zr1437     O1463   2.619       .  S
Zr1437     O1441   2.380       .  S
Zr1437     O1444   2.398       .  S
Zr1438     O1464   2.435       .  S
Zr1438     O1465   2.408       .  S
Zr1438     O1440   2.443       .  S
Zr1438     O1441   2.340       .  S
Zr1438     O1442   2.321       .  S
O1439      H1476   0.990       .  S
O1440      H1471   0.990       .  S
O1440      H1485   0.986       .  S
O1442      H1468   0.957       .  S
O1443     Zr1453   2.326       .  S
O1444     Zr1453   2.382       .  S
O1444      H1469   0.965       .  S
C1446      C2548   1.515       .  S
C1447      C1711   1.508       .  S
O1448      H1484   0.988       .  S
O1449      C1451   1.242       .  A
O1450      C1451   1.273       .  A
C1451      C1517   1.488   1_545  S
O1452     Zr1453   2.438       .  S
O1452      H1481   0.990       .  S
Zr1453     O1456   2.438       .  S
Zr1453     O1457   2.442       .  S
Zr1453     O1458   2.507       .  S
O1454      C1459   1.285       .  A
O1455      H1472   0.990       .  S
O1455      H1487   0.988       .  S
O1456      H1473   0.990       .  S
O1457      H1477   0.990       .  S
O1457      H1486   0.990       .  S
O1458      C1459   1.301       .  A
O1460      H1479   0.988       .  S
O1460      H1483   0.986       .  S
O1461      H1475   0.990       .  S
O1461      H1482   0.990       .  S
O1462      C1466   1.279       .  A
O1463      C1466   1.318       .  A
O1464      H1474   0.990       .  S
O1465      H1478   0.991       .  S
C1466      C1598   1.543       .  S
Zr1489     O1490   2.435       .  S
Zr1489     O1491   2.481       .  S
Zr1489     O1492   2.674       .  S
Zr1489     O1495   2.443       .  S
Zr1489     O1498   2.454       .  S
Zr1489     O1499   2.333       .  S
Zr1489     O1500   2.470       .  S
Zr1489     O1497   2.243       .  S
O1490      H1546   0.990       .  S
O1490      H1554   0.990       .  S
O1491      C1511   1.288   1_565  A
O1492      C1513   1.333       .  A
O1493     Zr1503   2.546       .  S
O1493      C1512   1.309       .  A
O1494     Zr1502   2.298       .  S
O1494      C1513   1.237       .  A
O1495      C1512   1.284       .  A
O1496     Zr1504   2.378       .  S
O1496      C1511   1.258       .  A
O1497     Zr1502   2.292       .  S
O1497     Zr1504   2.335   1_565  S
O1498     Zr1503   2.445       .  S
O1498     Zr1504   2.285   1_565  S
O1498      H1533   0.958       .  S
O1499     Zr1502   2.420       .  S
O1499     Zr1519   2.385       .  S
O1499      H1536   0.967       .  S
O1500     Zr1503   2.459       .  S
O1500     Zr1519   2.382       .  S
Zr1501     O1526   2.399   1_565  S
Zr1501     O1520   2.406       .  S
Zr1501     O1528   2.381       .  S
Zr1501     O1516   2.456   1_565  S
Zr1501     O1507   2.402   1_565  S
Zr1501     O1508   2.392   1_565  S
Zr1501     O1509   2.329       .  S
Zr1501     O1510   2.421       .  S
Zr1502     O1521   2.472       .  S
Zr1502     O1514   2.426       .  S
Zr1502     O1515   2.300       .  S
Zr1502     O1508   2.434   1_565  S
Zr1502     O1509   2.301       .  S
Zr1503     O1505   2.433       .  S
Zr1503     O1527   2.434       .  S
Zr1503     O1529   2.694       .  S
Zr1503     O1507   2.361   1_565  S
Zr1503     O1510   2.381       .  S
Zr1504     O1530   2.443       .  S
Zr1504     O1531   2.440       .  S
Zr1504     O1506   2.431       .  S
Zr1504     O1507   2.361       .  S
Zr1504     O1508   2.367       .  S
O1505      H1542   0.990       .  S
O1506      H1537   0.990       .  S
O1506      H1551   0.985       .  S
O1508      H1534   0.961       .  S
O1509     Zr1519   2.333       .  S
O1510     Zr1519   2.377       .  S
O1510      H1535   0.965       .  S
C1511      C1591   1.451       .  S
C1512      C2428   1.514       .  S
O1514      H1550   0.989       .  S
O1515      C1517   1.240       .  A
O1516      C1517   1.275   1_545  A
O1518     Zr1519   2.436       .  S
O1518      H1547   0.991       .  S
Zr1519     O1522   2.438       .  S
Zr1519     O1523   2.439       .  S
Zr1519     O1524   2.454       .  S
O1520      C1525   1.283       .  A
O1521      H1538   0.981       .  S
O1521      H1553   0.990       .  S
O1522      H1539   0.990       .  S
O1523      H1543   0.990       .  S
O1523      H1552   0.990       .  S
O1524      C1525   1.288       .  A
C1525      C1709   1.420       .  S
O1526      H1545   0.988       .  S
O1526      H1549   0.987       .  S
O1527      H1541   0.990   1_565  S
O1527      H1548   0.990       .  S
O1528      C1532   1.270       .  A
O1529      C1532   1.333       .  A
O1530      H1540   0.990       .  S
O1531      H1544   0.990       .  S
Zr1555     O1556   2.434   1_554  S
Zr1555     O1557   2.483       .  S
Zr1555     O1558   2.637       .  S
Zr1555     O1561   2.425       .  S
Zr1555     O1564   2.446       .  S
Zr1555     O1565   2.358       .  S
Zr1555     O1566   2.463       .  S
Zr1555     O1563   2.237       .  S
O1556      H1612   0.991       .  S
O1556      H1620   0.990       .  S
O1557      C1577   1.287       .  A
O1558      C1579   1.327       .  A
O1559     Zr1569   2.568       .  S
O1559      C1578   1.315       .  A
O1560     Zr1568   2.314       .  S
O1560      C1579   1.243       .  A
O1561      C1578   1.289       .  A
O1562     Zr1570   2.362       .  S
O1562      C1577   1.256       .  A
O1563     Zr1568   2.296       .  S
O1563     Zr1570   2.334       .  S
O1564     Zr1569   2.407       .  S
O1564     Zr1570   2.297       .  S
O1564      H1599   0.960       .  S
O1565     Zr1568   2.396       .  S
O1565     Zr1585   2.394       .  S
O1565      H1602   0.965       .  S
O1566     Zr1569   2.444       .  S
O1566     Zr1585   2.399       .  S
Zr1567     O1592   2.425       .  S
Zr1567     O1586   2.446       .  S
Zr1567     O1594   2.420       .  S
Zr1567     O1582   2.471       .  S
Zr1567     O1573   2.422       .  S
Zr1567     O1574   2.399       .  S
Zr1567     O1575   2.355       .  S
Zr1567     O1576   2.428       .  S
Zr1568     O1587   2.465   1_545  S
Zr1568     O1580   2.404       .  S
Zr1568     O1581   2.305       .  S
Zr1568     O1574   2.430       .  S
Zr1568     O1575   2.322       .  S
Zr1569     O1571   2.435       .  S
Zr1569     O1593   2.438       .  S
Zr1569     O1595   2.620       .  S
Zr1569     O1573   2.385       .  S
Zr1569     O1576   2.408       .  S
Zr1570     O1596   2.438       .  S
Zr1570     O1597   2.434       .  S
Zr1570     O1572   2.437       .  S
Zr1570     O1573   2.341       .  S
Zr1570     O1574   2.321       .  S
O1571      H1608   0.990       .  S
O1572      H1603   0.990       .  S
O1572      H1617   0.983       .  S
O1574      H1600   0.962       .  S
O1575     Zr1585   2.353       .  S
O1576     Zr1585   2.377       .  S
O1576      H1601   0.965       .  S
C1577      C1657   1.445   1_554  S
C1578      C2572   1.522       .  S
O1580      H1616   0.982       .  S
O1581      C1583   1.245       .  A
O1582      C1583   1.275       .  A
O1584     Zr1585   2.437       .  S
O1584      H1613   0.990       .  S
Zr1585     O1588   2.436       .  S
Zr1585     O1589   2.441       .  S
Zr1585     O1590   2.449       .  S
O1586      C1591   1.289       .  A
O1587      H1604   0.986       .  S
O1587      H1619   0.991       .  S
O1588      H1605   0.991       .  S
O1589      H1609   0.990       .  S
O1589      H1618   0.990       .  S
O1590      C1591   1.287       .  A
O1592      H1611   0.987       .  S
O1592      H1615   0.987       .  S
O1593      H1607   0.990       .  S
O1593      H1614   0.990       .  S
O1594      C1598   1.274       .  A
O1595      C1598   1.318       .  A
O1596      H1606   0.990       .  S
O1597      H1610   0.990       .  S
Zr1621     O1622   2.434       .  S
Zr1621     O1623   2.491       .  S
Zr1621     O1624   2.679       .  S
Zr1621     O1627   2.435       .  S
Zr1621     O1629   2.349       .  S
Zr1621     O1630   2.447       .  S
Zr1621     O1631   2.343       .  S
Zr1621     O1632   2.474       .  S
O1622      H1678   0.990       .  S
O1622      H1686   0.990       .  S
O1623      C1643   1.296       .  A
O1624      C1645   1.335       .  A
O1625     Zr1635   2.538       .  S
O1625      C1644   1.306       .  A
O1626     Zr1634   2.298       .  S
O1626      C1645   1.245       .  A
O1627      C1644   1.282       .  A
O1628     Zr1636   2.382       .  S
O1628      C1643   1.257   1_565  A
O1629     Zr1634   2.374       .  S
O1629     Zr1636   2.443   1_545  S
O1630     Zr1635   2.432       .  S
O1630     Zr1636   2.296   1_545  S
O1630      H1665   0.958       .  S
O1631     Zr1634   2.411       .  S
O1631     Zr1651   2.390       .  S
O1631      H1668   0.965       .  S
O1632     Zr1635   2.444       .  S
O1632     Zr1651   2.389       .  S
Zr1633     O1658   2.441   1_545  S
Zr1633     O1652   2.459       .  S
Zr1633     O1660   2.412   1_556  S
Zr1633     O1648   2.441       .  S
Zr1633     O1639   2.411       .  S
Zr1633     O1640   2.395       .  S
Zr1633     O1641   2.339       .  S
Zr1633     O1642   2.423       .  S
Zr1634     O1653   2.467       .  S
Zr1634     O1646   2.414       .  S
Zr1634     O1647   2.309       .  S
Zr1634     O1640   2.434       .  S
Zr1634     O1641   2.325       .  S
Zr1635     O1637   2.434       .  S
Zr1635     O1659   2.436       .  S
Zr1635     O1661   2.628       .  S
Zr1635     O1639   2.381       .  S
Zr1635     O1642   2.388       .  S
Zr1636     O1662   2.440       .  S
Zr1636     O1663   2.432       .  S
Zr1636     O1638   2.436       .  S
Zr1636     O1639   2.363   1_565  S
Zr1636     O1640   2.365   1_565  S
O1637      H1674   0.990       .  S
O1638      H1669   0.991       .  S
O1638      H1683   0.985       .  S
O1640      H1666   0.960   1_545  S
O1641     Zr1651   2.337       .  S
O1642     Zr1651   2.373       .  S
O1642      H1667   0.964       .  S
C1643      C1723   1.451   1_545  S
C1644      C2473   1.513       .  S
O1646      H1682   0.982       .  S
O1647      C1649   1.239       .  A
O1648      C1649   1.271       .  A
O1650     Zr1651   2.435       .  S
O1650      H1679   0.990       .  S
Zr1651     O1654   2.436       .  S
Zr1651     O1655   2.442       .  S
Zr1651     O1656   2.436       .  S
O1652      C1657   1.293       .  A
O1653      H1670   0.985       .  S
O1653      H1685   0.990       .  S
O1654      H1671   0.990       .  S
O1655      H1675   0.990       .  S
O1655      H1684   0.990   1_556  S
O1656      C1657   1.285       .  A
O1658      H1677   0.989       .  S
O1658      H1681   0.987       .  S
O1659      H1673   0.990       .  S
O1659      H1680   0.990       .  S
O1660      C1664   1.275       .  A
O1661      C1664   1.321   1_556  A
O1662      H1672   0.990       .  S
O1663      H1676   0.990       .  S
Zr1687     O1688   2.433       .  S
Zr1687     O1689   2.475       .  S
Zr1687     O1690   2.650       .  S
Zr1687     O1693   2.399       .  S
Zr1687     O1696   2.409       .  S
Zr1687     O1697   2.403       .  S
Zr1687     O1698   2.479       .  S
Zr1687     O1695   2.177       .  S
O1688      H1744   0.990       .  S
O1688      H1752   0.990       .  S
O1689      C1709   1.288       .  A
O1690      C1711   1.328   1_565  A
O1691     Zr1701   2.572       .  S
O1691      C1710   1.316       .  A
O1692     Zr1700   2.288   1_545  S
O1692      C1711   1.238       .  A
O1693      C1710   1.284       .  A
O1694     Zr1702   2.347       .  S
O1694      C1709   1.245       .  A
O1695     Zr1700   2.362       .  S
O1695     Zr1702   2.356       .  S
O1696     Zr1701   2.375       .  S
O1696     Zr1702   2.311       .  S
O1696      H1731   0.957       .  S
O1697     Zr1700   2.344       .  S
O1697     Zr1717   2.429       .  S
O1697      H1734   0.965       .  S
O1698     Zr1701   2.405       .  S
O1698     Zr1717   2.414       .  S
Zr1699     O1724   2.437       .  S
Zr1699     O1718   2.416       .  S
Zr1699     O1726   2.489       .  S
Zr1699     O1714   2.600   1_565  S
Zr1699     O1705   2.404       .  S
Zr1699     O1706   2.381       .  S
Zr1699     O1707   2.342       .  S
Zr1699     O1708   2.442       .  S
Zr1700     O1719   2.456   1_565  S
Zr1700     O1712   2.441   1_565  S
Zr1700     O1713   2.306   1_565  S
Zr1700     O1706   2.462       .  S
Zr1700     O1707   2.252       .  S
Zr1701     O1703   2.434       .  S
Zr1701     O1725   2.436       .  S
Zr1701     O1727   2.550       .  S
Zr1701     O1705   2.430       .  S
Zr1701     O1708   2.414       .  S
Zr1702     O1728   2.451       .  S
Zr1702     O1729   2.449       .  S
Zr1702     O1704   2.461       .  S
Zr1702     O1705   2.332       .  S
Zr1702     O1706   2.334       .  S
O1703      H1740   0.990       .  S
O1704      H1735   0.990       .  S
O1704      H1749   0.988       .  S
O1706      H1732   0.969       .  S
O1707     Zr1717   2.303       .  S
O1708     Zr1717   2.377       .  S
O1708      H1733   0.966       .  S
C1710      C2377   1.511       .  S
O1712      H1748   0.990       .  S
O1713      C1715   1.251       .  A
O1714      C1715   1.324       .  A
O1716     Zr1717   2.435       .  S
O1716      H1745   0.990       .  S
Zr1717     O1720   2.437       .  S
Zr1717     O1721   2.438       .  S
Zr1717     O1722   2.516       .  S
O1718      C1723   1.283       .  A
O1719      H1736   0.990   1_545  S
O1719      H1751   0.992       .  S
O1720      H1737   0.990       .  S
O1721      H1741   0.991       .  S
O1721      H1750   0.990       .  S
O1722      C1723   1.302       .  A
O1724      H1743   0.987       .  S
O1724      H1747   0.986   1_565  S
O1725      H1739   0.990       .  S
O1725      H1746   0.990       .  S
O1726      C1730   1.299       .  A
O1727      C1730   1.301       .  A
O1728      H1738   0.992       .  S
O1729      H1742   0.990       .  S
Zr1753     O1754   2.435       .  S
Zr1753     O1755   2.446       .  S
Zr1753     O1756   2.414       .  S
Zr1753     O1759   2.650       .  S
Zr1753     O1761   2.415       .  S
Zr1753     O1762   2.353       .  S
Zr1753     O1763   2.484       .  S
Zr1753     O1764   2.304       .  S
O1754      H1810   0.990       .  S
O1754      H1818   0.990       .  S
O1755      C1775   1.285       .  A
O1756      C1777   1.284       .  A
O1757     Zr1767   2.207       .  S
O1757      C1776   1.237       .  A
O1758     Zr1766   2.537       .  S
O1758      C1777   1.307       .  A
O1759      C1776   1.331       .  A
O1760     Zr1768   2.400       .  S
O1760      C1775   1.260       .  A
O1761     Zr1766   2.403       .  S
O1761     Zr1768   2.300       .  S
O1762     Zr1767   2.416       .  S
O1762     Zr1768   2.415       .  S
O1762      H1797   0.963       .  S
O1763     Zr1766   2.439       .  S
O1763     Zr1783   2.421       .  S
O1763      H1800   0.966       .  S
O1764     Zr1767   2.235       .  S
O1764     Zr1783   2.323       .  S
Zr1765     O1790   2.389       .  S
Zr1765     O1784   2.460       .  S
Zr1765     O1792   2.517       .  S
Zr1765     O1780   2.443       .  S
Zr1765     O1772   2.415       .  S
Zr1765     O1773   2.402       .  S
Zr1765     O1774   2.355       .  S
Zr1765     O1771   2.244       .  S
Zr1766     O1785   2.434       .  S
Zr1766     O1778   2.438       .  S
Zr1766     O1779   2.571       .  S
Zr1766     O1772   2.421       .  S
Zr1766     O1773   2.413       .  S
Zr1767     O1769   2.443       .  S
Zr1767     O1791   2.456       .  S
Zr1767     O1793   2.364       .  S
Zr1767     O1774   2.256       .  S
Zr1767     O1771   2.322       .  S
Zr1768     O1794   2.447       .  S
Zr1768     O1795   2.439       .  S
Zr1768     O1770   2.450       .  S
Zr1768     O1772   2.338       .  S
Zr1768     O1771   2.331       .  S
O1769      H1806   0.991       .  S
O1770      H1801   0.990       .  S
O1770      H1815   0.989       .  S
O1772      H1798   0.963       .  S
O1773     Zr1783   2.380       .  S
O1774     Zr1783   2.347       .  S
O1774      H1799   0.964       .  S
C1775      C1921   1.454       .  S
C1776      C2106   1.467       .  S
C1777      C2740   1.508       .  S
O1778      H1814   0.990       .  S
O1779      C1781   1.309       .  A
O1780      C1781   1.284       .  A
C1781      C2243   1.523       .  S
O1782     Zr1783   2.435       .  S
O1782      H1811   0.990       .  S
Zr1783     O1786   2.434       .  S
Zr1783     O1787   2.438       .  S
Zr1783     O1788   2.496       .  S
O1784      C1789   1.292       .  A
O1785      H1802   0.990       .  S
O1785      H1817   0.990       .  S
O1786      H1803   0.990       .  S
O1787      H1807   0.990       .  S
O1787      H1816   0.990       .  S
O1788      C1789   1.295       .  A
C1789      C1841   1.478       .  S
O1790      H1809   0.985       .  S
O1790      H1813   0.981       .  S
O1791      H1805   0.990       .  S
O1791      H1812   0.991       .  S
O1792      C1796   1.283       .  A
O1793      C1796   1.249       .  A
O1794      H1804   0.991       .  S
O1795      H1808   0.990       .  S
C1796      C2192   1.480       .  S
Zr1819     O1820   2.438       .  S
Zr1819     O1821   2.483       .  S
Zr1819     O1822   2.409       .  S
Zr1819     O1825   2.541       .  S
Zr1819     O1827   2.413       .  S
Zr1819     O1828   2.384       .  S
Zr1819     O1829   2.454       .  S
Zr1819     O1830   2.378       .  S
O1820      H1876   0.991       .  S
O1820      H1884   0.990       .  S
O1821      C1841   1.291       .  A
O1822      C1843   1.285       .  A
O1823     Zr1833   2.335       .  S
O1823      C1842   1.252       .  A
O1824     Zr1832   2.529       .  S
O1824      C1843   1.306       .  A
O1825      C1842   1.308       .  A
O1826     Zr1834   2.397       .  S
O1826      C1841   1.264       .  A
O1827     Zr1832   2.408       .  S
O1827     Zr1834   2.322       .  S
O1828     Zr1833   2.382       .  S
O1828     Zr1834   2.408       .  S
O1828      H1863   0.962       .  S
O1829     Zr1832   2.433       .  S
O1829     Zr1849   2.412       .  S
O1829      H1866   0.966       .  S
O1830     Zr1833   2.382       .  S
O1830     Zr1849   2.403       .  S
Zr1831     O1856   2.401       .  S
Zr1831     O1850   2.465       .  S
Zr1831     O1858   2.434       .  S
Zr1831     O1846   2.434       .  S
Zr1831     O1838   2.411       .  S
Zr1831     O1839   2.393       .  S
Zr1831     O1840   2.402       .  S
Zr1831     O1837   2.292       .  S
Zr1832     O1851   2.435       .  S
Zr1832     O1844   2.438       .  S
Zr1832     O1845   2.571       .  S
Zr1832     O1838   2.408       .  S
Zr1832     O1839   2.406       .  S
Zr1833     O1835   2.437       .  S
Zr1833     O1857   2.435       .  S
Zr1833     O1859   2.363       .  S
Zr1833     O1840   2.312       .  S
Zr1833     O1837   2.313       .  S
Zr1834     O1860   2.428       .  S
Zr1834     O1861   2.433       .  S
Zr1834     O1836   2.450       .  S
Zr1834     O1838   2.356       .  S
Zr1834     O1837   2.309       .  S
O1835      H1872   0.990       .  S
O1836      H1867   0.990       .  S
O1836      H1881   0.990       .  S
O1838      H1864   0.964       .  S
O1839     Zr1849   2.385       .  S
O1840     Zr1849   2.357       .  S
O1840      H1865   0.964       .  S
C1842      C2172   1.487       .  S
C1843      C2365   1.507       .  S
O1844      H1880   0.990       .  S
O1845      C1847   1.307       .  A
O1846      C1847   1.278       .  A
C1847      C2045   1.524       .  S
O1848     Zr1849   2.436       .  S
O1848      H1877   0.990       .  S
Zr1849     O1852   2.436       .  S
Zr1849     O1853   2.437       .  S
Zr1849     O1854   2.468       .  S
O1850      C1855   1.294       .  A
O1851      H1868   0.990       .  S
O1851      H1883   0.990       .  S
O1852      H1869   0.990       .  S
O1853      H1873   0.990       .  S
O1853      H1882   0.991       .  S
O1854      C1855   1.290       .  A
C1855      C1973   1.469       .  S
O1856      H1875   0.987       .  S
O1856      H1879   0.983       .  S
O1857      H1871   0.989       .  S
O1857      H1878   0.987       .  S
O1858      C1862   1.260       .  A
O1859      C1862   1.245       .  A
O1860      H1870   0.991       .  S
O1861      H1874   0.989       .  S
C1862      C2258   1.449       .  S
Zr1885     O1886   2.433   1_554  S
Zr1885     O1887   2.458       .  S
Zr1885     O1888   2.419       .  S
Zr1885     O1891   2.625       .  S
Zr1885     O1893   2.425       .  S
Zr1885     O1894   2.355       .  S
Zr1885     O1895   2.485       .  S
Zr1885     O1896   2.330       .  S
O1886      H1942   0.990       .  S
O1886      H1950   0.991       .  S
O1887      C1907   1.285       .  A
O1888      C1909   1.288       .  A
O1889     Zr1899   2.249       .  S
O1889      C1908   1.243       .  A
O1890     Zr1898   2.499       .  S
O1890      C1909   1.301       .  A
O1891      C1908   1.328       .  A
O1892     Zr1900   2.401       .  S
O1892      C1907   1.267       .  A
O1893     Zr1898   2.427       .  S
O1893     Zr1900   2.294       .  S
O1894     Zr1899   2.425       .  S
O1894     Zr1900   2.408       .  S
O1894      H1929   0.963       .  S
O1895     Zr1898   2.456       .  S
O1895     Zr1915   2.433       .  S
O1895      H1932   0.966       .  S
O1896     Zr1899   2.239       .  S
O1896     Zr1915   2.341       .  S
Zr1897     O1922   2.385       .  S
Zr1897     O1916   2.389       .  S
Zr1897     O1924   2.469       .  S
Zr1897     O1912   2.430       .  S
Zr1897     O1903   2.320       .  S
Zr1897     O1904   2.376       .  S
Zr1897     O1905   2.366       .  S
Zr1897     O1906   2.383       .  S
Zr1898     O1917   2.435       .  S
Zr1898     O1910   2.438       .  S
Zr1898     O1911   2.580       .  S
Zr1898     O1904   2.416       .  S
Zr1898     O1905   2.407       .  S
Zr1899     O1901   2.439       .  S
Zr1899     O1923   2.448       .  S
Zr1899     O1925   2.295       .  S
Zr1899     O1903   2.393       .  S
Zr1899     O1906   2.263       .  S
Zr1900     O1926   2.436       .  S
Zr1900     O1927   2.431       .  S
Zr1900     O1902   2.446       .  S
Zr1900     O1903   2.422       .  S
Zr1900     O1904   2.351       .  S
O1901      H1938   0.990       .  S
O1902      H1933   0.989       .  S
O1902      H1947   0.990       .  S
O1904      H1930   0.965       .  S
O1905     Zr1915   2.399       .  S
O1906     Zr1915   2.375       .  S
O1906      H1931   0.961       .  S
C1907      C1987   1.463   1_554  S
C1908      C2040   1.466   1_554  S
C1909      C2620   1.500       .  S
O1910      H1946   0.990       .  S
O1911      C1913   1.305       .  A
O1912      C1913   1.273       .  A
C1913      C2177   1.524       .  S
O1914     Zr1915   2.437       .  S
O1914      H1943   0.990       .  S
Zr1915     O1918   2.435       .  S
Zr1915     O1919   2.437       .  S
Zr1915     O1920   2.510       .  S
O1916      C1921   1.277       .  A
O1917      H1934   0.990       .  S
O1917      H1949   0.990       .  S
O1918      H1935   0.990       .  S
O1919      H1939   0.990       .  S
O1919      H1948   0.990       .  S
O1920      C1921   1.298       .  A
O1922      H1941   0.987       .  S
O1922      H1945   0.987       .  S
O1923      H1937   0.990       .  S
O1923      H1944   0.990       .  S
O1924      C1928   1.272       .  A
O1925      C1928   1.249       .  A
O1926      H1936   0.988       .  S
O1927      H1940   0.991       .  S
C1928      C2126   1.489       .  S
Zr1951     O1952   2.437       .  S
Zr1951     O1953   2.492       .  S
Zr1951     O1954   2.420       .  S
Zr1951     O1957   2.534       .  S
Zr1951     O1959   2.403       .  S
Zr1951     O1960   2.392       .  S
Zr1951     O1961   2.468       .  S
Zr1951     O1962   2.386       .  S
O1952      H2008   0.990       .  S
O1952      H2016   0.990       .  S
O1953      C1973   1.290       .  A
O1954      C1975   1.286       .  A
O1955     Zr1965   2.352       .  S
O1955      C1974   1.253       .  A
O1956     Zr1964   2.538       .  S
O1956      C1975   1.308       .  A
O1957      C1974   1.304       .  A
O1958     Zr1966   2.366       .  S
O1958      C1973   1.255       .  A
O1959     Zr1964   2.395       .  S
O1959     Zr1966   2.308       .  S
O1960     Zr1965   2.397       .  S
O1960     Zr1966   2.438       .  S
O1960      H1995   0.964       .  S
O1961     Zr1964   2.440       .  S
O1961     Zr1981   2.418       .  S
O1961      H1998   0.966       .  S
O1962     Zr1965   2.388       .  S
O1962     Zr1981   2.410       .  S
Zr1963     O1988   2.434       .  S
Zr1963     O1982   2.432       .  S
Zr1963     O1990   2.441       .  S
Zr1963     O1978   2.399       .  S
Zr1963     O1969   2.385       .  S
Zr1963     O1970   2.410       .  S
Zr1963     O1971   2.396       .  S
Zr1963     O1972   2.405       .  S
Zr1964     O1983   2.435       .  S
Zr1964     O1976   2.436       .  S
Zr1964     O1977   2.600       .  S
Zr1964     O1970   2.387       .  S
Zr1964     O1971   2.385       .  S
Zr1965     O1967   2.439       .  S
Zr1965     O1989   2.455       .  S
Zr1965     O1991   2.362       .  S
Zr1965     O1969   2.418       .  S
Zr1965     O1972   2.333       .  S
Zr1966     O1992   2.435       .  S
Zr1966     O1993   2.448       .  S
Zr1966     O1968   2.443       .  S
Zr1966     O1969   2.397       .  S
Zr1966     O1970   2.346       .  S
O1967      H2004   0.990       .  S
O1968      H1999   0.989       .  S
O1968      H2013   0.990       .  S
O1970      H1996   0.962       .  S
O1971     Zr1981   2.374       .  S
O1972     Zr1981   2.353       .  S
O1972      H1997   0.962       .  S
C1974      C2238   1.494       .  S
C1975      C2644   1.510       .  S
O1976      H2012   0.990       .  S
O1977      C1979   1.314       .  A
O1978      C1979   1.274       .  A
C1979      C2111   1.520   1_556  S
O1980     Zr1981   2.437       .  S
O1980      H2009   0.990       .  S
Zr1981     O1984   2.435       .  S
Zr1981     O1985   2.435       .  S
Zr1981     O1986   2.484       .  S
O1982      C1987   1.287       .  A
O1983      H2000   0.990       .  S
O1983      H2015   0.990       .  S
O1984      H2001   0.990       .  S
O1985      H2005   0.990       .  S
O1985      H2014   0.990       .  S
O1986      C1987   1.293       .  A
O1988      H2007   0.981       .  S
O1988      H2011   0.987       .  S
O1989      H2003   0.989       .  S
O1989      H2010   0.982       .  S
O1990      C1994   1.262       .  A
O1991      C1994   1.243       .  A
O1992      H2002   0.990       .  S
O1993      H2006   0.990       .  S
C1994      C2060   1.451       .  S
Zr2017     O2018   2.438   1_556  S
Zr2017     O2019   2.450   1_556  S
Zr2017     O2020   2.423       .  S
Zr2017     O2023   2.604   1_556  S
Zr2017     O2025   2.429       .  S
Zr2017     O2026   2.379       .  S
Zr2017     O2027   2.474       .  S
Zr2017     O2028   2.325       .  S
O2018      H2074   0.990       .  S
O2018      H2082   0.990       .  S
O2019      C2039   1.283       .  A
O2020      C2041   1.286       .  A
O2021     Zr2031   2.257       .  S
O2021      C2040   1.244       .  A
O2022     Zr2030   2.536       .  S
O2022      C2041   1.307       .  A
O2023      C2040   1.322   1_554  A
O2024     Zr2032   2.376       .  S
O2024      C2039   1.258   1_556  A
O2025     Zr2030   2.415       .  S
O2025     Zr2032   2.304       .  S
O2026     Zr2031   2.405       .  S
O2026     Zr2032   2.427       .  S
O2026      H2061   0.964       .  S
O2027     Zr2030   2.440       .  S
O2027     Zr2047   2.435       .  S
O2027      H2064   0.966       .  S
O2028     Zr2031   2.234       .  S
O2028     Zr2047   2.340       .  S
Zr2029     O2054   2.472       .  S
Zr2029     O2048   2.464       .  S
Zr2029     O2056   2.416       .  S
Zr2029     O2044   2.442       .  S
Zr2029     O2035   2.319       .  S
Zr2029     O2036   2.397       .  S
Zr2029     O2037   2.389       .  S
Zr2029     O2038   2.420       .  S
Zr2030     O2049   2.434       .  S
Zr2030     O2042   2.435       .  S
Zr2030     O2043   2.565       .  S
Zr2030     O2036   2.426       .  S
Zr2030     O2037   2.422       .  S
Zr2031     O2033   2.443       .  S
Zr2031     O2055   2.446       .  S
Zr2031     O2057   2.318       .  S
Zr2031     O2035   2.382       .  S
Zr2031     O2038   2.253       .  S
Zr2032     O2058   2.434       .  S
Zr2032     O2059   2.404       .  S
Zr2032     O2034   2.446       .  S
Zr2032     O2035   2.389       .  S
Zr2032     O2036   2.362       .  S
O2033      H2070   0.989       .  S
O2034      H2065   0.990       .  S
O2034      H2079   0.990       .  S
O2036      H2062   0.963       .  S
O2037     Zr2047   2.392       .  S
O2038     Zr2047   2.352       .  S
O2038      H2063   0.966       .  S
C2039      C2119   1.453       .  S
C2041      C2353   1.511   1_556  S
O2042      H2078   0.991       .  S
O2043      C2045   1.302       .  A
O2044      C2045   1.276       .  A
O2046     Zr2047   2.437       .  S
O2046      H2075   0.990       .  S
Zr2047     O2050   2.434       .  S
Zr2047     O2051   2.437       .  S
Zr2047     O2052   2.529       .  S
O2048      C2053   1.290       .  A
O2049      H2066   0.990       .  S
O2049      H2081   0.990       .  S
O2050      H2067   0.990       .  S
O2051      H2071   0.991       .  S
O2051      H2080   0.990       .  S
O2052      C2053   1.302       .  A
C2053      C2237   1.478       .  S
O2054      H2073   0.986       .  S
O2054      H2077   0.987       .  S
O2055      H2069   0.990       .  S
O2055      H2076   0.990       .  S
O2056      C2060   1.260       .  A
O2057      C2060   1.245       .  A
O2058      H2068   0.990       .  S
O2059      H2072   0.984       .  S
Zr2083     O2084   2.437       .  S
Zr2083     O2085   2.480       .  S
Zr2083     O2086   2.399       .  S
Zr2083     O2089   2.622       .  S
Zr2083     O2091   2.412       .  S
Zr2083     O2092   2.349       .  S
Zr2083     O2093   2.476       .  S
Zr2083     O2094   2.298       .  S
O2084      H2140   0.990       .  S
O2084      H2148   0.989       .  S
O2085      C2105   1.290       .  A
O2086      C2107   1.280       .  A
O2087     Zr2097   2.248       .  S
O2087      C2106   1.238       .  A
O2088     Zr2096   2.527       .  S
O2088      C2107   1.305       .  A
O2089      C2106   1.325       .  A
O2090     Zr2098   2.379       .  S
O2090      C2105   1.260       .  A
O2091     Zr2096   2.406       .  S
O2091     Zr2098   2.298       .  S
O2092     Zr2097   2.410       .  S
O2092     Zr2098   2.420       .  S
O2092      H2127   0.957       .  S
O2093     Zr2096   2.434       .  S
O2093     Zr2113   2.409       .  S
O2093      H2130   0.966       .  S
O2094     Zr2097   2.241       .  S
O2094     Zr2113   2.319       .  S
Zr2095     O2120   2.440       .  S
Zr2095     O2114   2.448       .  S
Zr2095     O2122   2.520       .  S
Zr2095     O2110   2.487       .  S
Zr2095     O2102   2.420       .  S
Zr2095     O2103   2.411       .  S
Zr2095     O2104   2.367       .  S
Zr2095     O2101   2.253       .  S
Zr2096     O2115   2.435       .  S
Zr2096     O2108   2.440       .  S
Zr2096     O2109   2.541       .  S
Zr2096     O2102   2.448       .  S
Zr2096     O2103   2.420       .  S
Zr2097     O2099   2.445       .  S
Zr2097     O2121   2.461       .  S
Zr2097     O2123   2.383       .  S
Zr2097     O2104   2.257       .  S
Zr2097     O2101   2.326       .  S
Zr2098     O2124   2.464       .  S
Zr2098     O2125   2.434       .  S
Zr2098     O2100   2.456       .  S
Zr2098     O2102   2.324       .  S
Zr2098     O2101   2.329       .  S
O2099      H2136   0.991       .  S
O2100      H2131   0.989       .  S
O2100      H2145   0.990       .  S
O2102      H2128   0.965       .  S
O2103     Zr2113   2.377       .  S
O2104     Zr2113   2.362       .  S
O2104      H2129   0.964       .  S
C2105      C2185   1.465       .  S
C2107      C2668   1.504       .  S
O2108      H2144   0.989       .  S
O2109      C2111   1.294       .  A
O2110      C2111   1.279       .  A
O2112     Zr2113   2.436       .  S
O2112      H2141   0.990       .  S
Zr2113     O2116   2.434       .  S
Zr2113     O2117   2.441       .  S
Zr2113     O2118   2.464       .  S
O2114      C2119   1.288       .  A
O2115      H2132   0.990       .  S
O2115      H2147   0.990       .  S
O2116      H2133   0.990       .  S
O2117      H2137   0.991       .  S
O2117      H2146   0.991       .  S
O2118      C2119   1.288       .  A
O2120      H2139   0.988       .  S
O2120      H2143   0.984       .  S
O2121      H2135   0.991       .  S
O2121      H2142   0.989       .  S
O2122      C2126   1.286       .  A
O2123      C2126   1.252       .  A
O2124      H2134   0.992       .  S
O2125      H2138   0.990       .  S
Zr2149     O2150   2.434       .  S
Zr2149     O2151   2.485       .  S
Zr2149     O2152   2.429       .  S
Zr2149     O2155   2.631       .  S
Zr2149     O2157   2.419       .  S
Zr2149     O2158   2.348       .  S
Zr2149     O2159   2.484       .  S
Zr2149     O2160   2.322       .  S
O2150      H2206   0.990       .  S
O2150      H2214   0.991       .  S
O2151      C2171   1.291       .  A
O2152      C2173   1.289       .  A
O2153     Zr2163   2.266       .  S
O2153      C2172   1.251       .  A
O2154     Zr2162   2.503       .  S
O2154      C2173   1.301       .  A
O2155      C2172   1.326       .  A
O2156     Zr2164   2.395       .  S
O2156      C2171   1.260       .  A
O2157     Zr2162   2.423       .  S
O2157     Zr2164   2.292       .  S
O2158     Zr2163   2.423       .  S
O2158     Zr2164   2.413       .  S
O2158      H2193   0.964       .  S
O2159     Zr2162   2.458       .  S
O2159     Zr2179   2.430       .  S
O2159      H2196   0.966       .  S
O2160     Zr2163   2.241       .  S
O2160     Zr2179   2.330       .  S
Zr2161     O2186   2.386       .  S
Zr2161     O2180   2.408       .  S
Zr2161     O2188   2.495       .  S
Zr2161     O2176   2.423       .  S
Zr2161     O2168   2.380       .  S
Zr2161     O2169   2.380       .  S
Zr2161     O2170   2.379       .  S
Zr2161     O2167   2.216       .  S
Zr2162     O2181   2.434       .  S
Zr2162     O2174   2.437       .  S
Zr2162     O2175   2.603       .  S
Zr2162     O2168   2.402       .  S
Zr2162     O2169   2.393       .  S
Zr2163     O2165   2.442       .  S
Zr2163     O2187   2.454       .  S
Zr2163     O2189   2.313       .  S
Zr2163     O2170   2.289       .  S
Zr2163     O2167   2.295       .  S
Zr2164     O2190   2.419       .  S
Zr2164     O2191   2.431       .  S
Zr2164     O2166   2.452       .  S
Zr2164     O2168   2.339       .  S
Zr2164     O2167   2.319       .  S
O2165      H2202   0.990       .  S
O2166      H2197   0.990       .  S
O2166      H2211   0.991       .  S
O2168      H2194   0.962       .  S
O2169     Zr2179   2.402       .  S
O2170     Zr2179   2.398       .  S
O2170      H2195   0.964       .  S
C2171      C2251   1.469       .  S
C2173      C2584   1.498       .  S
O2174      H2210   0.990       .  S
O2175      C2177   1.318       .  A
O2176      C2177   1.285       .  A
O2178     Zr2179   2.436       .  S
O2178      H2207   0.991       .  S
Zr2179     O2182   2.434       .  S
Zr2179     O2183   2.443       .  S
Zr2179     O2184   2.470       .  S
O2180      C2185   1.268       .  A
O2181      H2198   0.990       .  S
O2181      H2213   0.990       .  S
O2182      H2199   0.990       .  S
O2183      H2203   0.990       .  S
O2183      H2212   0.989       .  S
O2184      C2185   1.281       .  A
O2186      H2205   0.987       .  S
O2186      H2209   0.978       .  S
O2187      H2201   0.990       .  S
O2187      H2208   0.990       .  S
O2188      C2192   1.281       .  A
O2189      C2192   1.251       .  A
O2190      H2200   0.988       .  S
O2191      H2204   0.988       .  S
Zr2215     O2216   2.440       .  S
Zr2215     O2217   2.530       .  S
Zr2215     O2218   2.439       .  S
Zr2215     O2221   2.594       .  S
Zr2215     O2223   2.426       .  S
Zr2215     O2224   2.389       .  S
Zr2215     O2225   2.495       .  S
Zr2215     O2226   2.343       .  S
O2216      H2272   0.991       .  S
O2216      H2280   0.990       .  S
O2217      C2237   1.298       .  A
O2218      C2239   1.289       .  A
O2219     Zr2229   2.273       .  S
O2219      C2238   1.250       .  A
O2220     Zr2228   2.520       .  S
O2220      C2239   1.305       .  A
O2221      C2238   1.312       .  A
O2222     Zr2230   2.340       .  S
O2222      C2237   1.251       .  A
O2223     Zr2228   2.424       .  S
O2223     Zr2230   2.303       .  S
O2224     Zr2229   2.393       .  S
O2224     Zr2230   2.430       .  S
O2224      H2259   0.966       .  S
O2225     Zr2228   2.450       .  S
O2225     Zr2245   2.447       .  S
O2225      H2262   0.966       .  S
O2226     Zr2229   2.232       .  S
O2226     Zr2245   2.348       .  S
Zr2227     O2252   2.451       .  S
Zr2227     O2246   2.416       .  S
Zr2227     O2254   2.436       .  S
Zr2227     O2242   2.409       .  S
Zr2227     O2233   2.315       .  S
Zr2227     O2234   2.386       .  S
Zr2227     O2235   2.382       .  S
Zr2227     O2236   2.418       .  S
Zr2228     O2247   2.435       .  S
Zr2228     O2240   2.437       .  S
Zr2228     O2241   2.589       .  S
Zr2228     O2234   2.411       .  S
Zr2228     O2235   2.409       .  S
Zr2229     O2231   2.442       .  S
Zr2229     O2253   2.442       .  S
Zr2229     O2255   2.304       .  S
Zr2229     O2233   2.389       .  S
Zr2229     O2236   2.255       .  S
Zr2230     O2256   2.395       .  S
Zr2230     O2257   2.405       .  S
Zr2230     O2232   2.439       .  S
Zr2230     O2233   2.388       .  S
Zr2230     O2234   2.337       .  S
O2231      H2268   0.990       .  S
O2232      H2263   0.990       .  S
O2232      H2277   0.990       .  S
O2234      H2260   0.965       .  S
O2235     Zr2245   2.385       .  S
O2236     Zr2245   2.367       .  S
O2236      H2261   0.967       .  S
C2239      C2716   1.514       .  S
O2240      H2276   0.990       .  S
O2241      C2243   1.303       .  A
O2242      C2243   1.269       .  A
O2244     Zr2245   2.437       .  S
O2244      H2273   0.990       .  S
Zr2245     O2248   2.434       .  S
Zr2245     O2249   2.439       .  S
Zr2245     O2250   2.541       .  S
O2246      C2251   1.280       .  A
O2247      H2264   0.990       .  S
O2247      H2279   0.990       .  S
O2248      H2265   0.990       .  S
O2249      H2269   0.991       .  S
O2249      H2278   0.990       .  S
O2250      C2251   1.304       .  A
O2252      H2271   0.988       .  S
O2252      H2275   0.986       .  S
O2253      H2267   0.990       .  S
O2253      H2274   0.989       .  S
O2254      C2258   1.259       .  A
O2255      C2258   1.245       .  A
O2256      H2266   0.990       .  S
O2257      H2270   0.990       .  S
C2281      N2282   1.357       .  A
C2281      N2286   1.377       .  A
C2281      C2380   1.500       .  S
N2282      C2283   1.356       .  A
C2283      N2284   1.358       .  A
C2283      C2341   1.492       .  S
N2284      C2285   1.359       .  A
C2285      N2286   1.375       .  A
C2285      C2332   1.499       .  S
C2287      N2288   1.378       .  A
C2287      N2292   1.360       .  A
C2287      C2392   1.503       .  S
N2288      C2289   1.374       .  A
C2289      N2290   1.356       .  A
C2289      C2329   1.498       .  S
N2290      C2291   1.356       .  A
C2291      N2292   1.355       .  A
C2291      C2317   1.491       .  S
C2293      N2294   1.366       .  A
C2293      N2298   1.370       .  A
C2293      C2368   1.499       .  S
N2294      C2295   1.365       .  A
C2295      N2296   1.356       .  A
C2295      C2344   1.492       .  S
N2296      C2297   1.352       .  A
C2297      N2298   1.364       .  A
C2297      C2305   1.482       .  S
C2299      N2300   1.368       .  A
C2299      N2304   1.372       .  A
C2299      C2356   1.510       .  S
N2300      C2301   1.366       .  A
C2301      N2302   1.354       .  A
C2301      C2320   1.493       .  S
N2302      C2303   1.349       .  A
C2303      N2304   1.362       .  A
C2303      C2308   1.482       .  S
C2305      C2306   1.407       .  A
C2305      C2310   1.407       .  A
C2306      C2307   1.408       .  A
C2306      H2311   1.084       .  S
C2307      C2308   1.409       .  A
C2307      O2312   1.372       .  S
C2308      C2309   1.404       .  A
C2309      C2310   1.405       .  A
C2309      H2313   1.084       .  S
C2310      O2314   1.372       .  S
O2312      H2316   0.992       .  S
O2314      H2315   0.991       .  S
C2317      C2318   1.403       .  A
C2317      C2322   1.416       .  A
C2318      C2319   1.397       .  A
C2318      H2323   1.084       .  S
C2319      C2320   1.416       .  A
C2319      O2324   1.373       .  S
C2320      C2321   1.406       .  A
C2321      C2322   1.406       .  A
C2321      H2325   1.083       .  S
C2322      O2326   1.371       .  S
O2324      H2328   0.992       .  S
O2326      H2327   0.992       .  S
C2329      C2330   1.407       .  A
C2329      C2334   1.413       .  A
C2330      C2331   1.416       .  A
C2330      H2335   1.084       .  S
C2331      C2332   1.416       .  A
C2331      O2336   1.372       .  S
C2332      C2333   1.404       .  A
C2333      C2334   1.410       .  A
C2333      H2337   1.083       .  S
C2334      O2338   1.371       .  S
O2336      H2340   0.992       .  S
O2338      H2339   0.991       .  S
C2341      C2342   1.409       .  A
C2341      C2346   1.411       .  A
C2342      C2343   1.404       .  A
C2342      H2347   1.083       .  S
C2343      C2344   1.411       .  A
C2343      O2348   1.371       .  S
C2344      C2345   1.409       .  A
C2345      C2346   1.399       .  A
C2345      H2349   1.083       .  S
C2346      O2350   1.372       .  S
O2348      H2352   0.992       .  S
O2350      H2351   0.992       .  S
C2353      C2354   1.408       .  A
C2353      C2358   1.421       .  A
C2354      C2355   1.418       .  A
C2354      H2359   1.083   1_554  S
C2355      C2356   1.421       .  A
C2355      O2360   1.371       .  S
C2356      C2357   1.403       .  A
C2357      C2358   1.400       .  A
C2357      H2361   1.083       .  S
C2358      O2362   1.372       .  S
O2360      H2364   0.992       .  S
O2362      H2363   0.992       .  S
C2365      C2366   1.414       .  A
C2365      C2370   1.412       .  A
C2366      C2367   1.403       .  A
C2366      H2371   1.084       .  S
C2367      C2368   1.407       .  A
C2367      O2372   1.372       .  S
C2368      C2369   1.411       .  A
C2369      C2370   1.416       .  A
C2369      H2373   1.083       .  S
C2370      O2374   1.371       .  S
O2372      H2376   0.992       .  S
O2374      H2375   0.992       .  S
C2377      C2378   1.421       .  A
C2377      C2382   1.410       .  A
C2378      C2379   1.409       .  A
C2378      H2383   1.084       .  S
C2379      C2380   1.405       .  A
C2379      O2384   1.372       .  S
C2380      C2381   1.412       .  A
C2381      C2382   1.413       .  A
C2381      H2385   1.083       .  S
C2382      O2386   1.371       .  S
O2384      H2388   0.992       .  S
O2386      H2387   0.992       .  S
C2389      C2390   1.415   1_556  A
C2389      C2394   1.413       .  A
C2390      C2391   1.408       .  A
C2390      H2395   1.078       .  S
C2391      C2392   1.406       .  A
C2391      O2396   1.371       .  S
C2392      C2393   1.413       .  A
C2393      C2394   1.411   1_554  A
C2393      H2397   1.083       .  S
C2394      O2398   1.372       .  S
O2396      H2400   0.992       .  S
O2398      H2399   0.992       .  S
C2401      C2402   1.414       .  A
C2401      C2406   1.407       .  A
C2402      C2403   1.415       .  A
C2402      H2407   1.083       .  S
C2403      C2404   1.413       .  A
C2403      O2408   1.371       .  S
C2404      C2405   1.418       .  A
C2405      C2406   1.410       .  A
C2405      H2409   1.083       .  S
C2406      O2410   1.371       .  S
O2408      H2412   0.991       .  S
O2410      H2411   0.992       .  S
C2413      C2414   1.409   1_545  A
C2413      C2418   1.412   1_556  A
C2414      C2415   1.410   1_556  A
C2414      H2419   1.084       .  S
C2415      C2416   1.410       .  A
C2415      O2420   1.372       .  S
C2416      C2417   1.411   1_565  A
C2417      C2418   1.418       .  A
C2417      H2421   1.083       .  S
C2418      O2422   1.371   1_554  S
O2420      H2424   0.992       .  S
O2422      H2423   0.992       .  S
C2425      C2426   1.420       .  A
C2425      C2430   1.410       .  A
C2426      C2427   1.416       .  A
C2426      H2431   1.083       .  S
C2427      C2428   1.409       .  A
C2427      O2432   1.371       .  S
C2428      C2429   1.415       .  A
C2429      C2430   1.409       .  A
C2429      H2433   1.078       .  S
C2430      O2434   1.371       .  S
O2432      H2436   0.992       .  S
O2434      H2435   0.992       .  S
C2437      C2438   1.406   1_455  A
C2437      C2442   1.412   1_445  A
C2438      C2439   1.407       .  A
C2438      H2443   1.083   1_655  S
C2439      C2440   1.413       .  A
C2439      O2444   1.371       .  S
C2440      C2441   1.404   1_545  A
C2441      C2442   1.401       .  A
C2441      H2445   1.084       .  S
C2442      O2446   1.372   1_655  S
O2444      H2448   0.992       .  S
O2446      H2447   0.992       .  S
C2449      C2450   1.405       .  A
C2449      C2454   1.410   1_565  A
C2450      C2451   1.408   1_554  A
C2450      H2455   1.084       .  S
C2451      C2452   1.410   1_565  A
C2451      O2456   1.371       .  S
C2452      C2453   1.404       .  A
C2453      C2454   1.410   1_556  A
C2453      H2457   1.083       .  S
C2454      O2458   1.372       .  S
O2456      H2460   0.992       .  S
O2458      H2459   0.992       .  S
C2461      C2462   1.408   1_545  A
C2461      C2466   1.411       .  A
C2462      C2463   1.405   1_655  A
C2462      H2467   1.083       .  S
C2463      C2464   1.411       .  A
C2463      O2468   1.371       .  S
C2464      C2465   1.406   1_465  A
C2465      C2466   1.399       .  A
C2465      H2469   1.084   1_655  S
C2466      O2470   1.373       .  S
O2468      H2472   0.992       .  S
O2470      H2471   0.992       .  S
C2473      C2474   1.416       .  A
C2473      C2478   1.408       .  A
C2474      C2475   1.413       .  A
C2474      H2479   1.078       .  S
C2475      C2476   1.408       .  A
C2475      O2480   1.372       .  S
C2476      C2477   1.419       .  A
C2477      C2478   1.413       .  A
C2477      H2481   1.083       .  S
C2478      O2482   1.371       .  S
O2480      H2484   0.992       .  S
O2482      H2483   0.992       .  S
C2485      C2486   1.411   1_545  A
C2485      C2490   1.413       .  A
C2486      C2487   1.410       .  A
C2486      H2491   1.084       .  S
C2487      C2488   1.410       .  A
C2487      O2492   1.372       .  S
C2488      C2489   1.414   1_565  A
C2489      C2490   1.424       .  A
C2489      H2493   1.083       .  S
C2490      O2494   1.371       .  S
O2492      H2496   0.992       .  S
O2494      H2495   0.992       .  S
C2497      C2498   1.403       .  A
C2497      C2502   1.420       .  A
C2498      C2499   1.412       .  A
C2498      H2503   1.083       .  S
C2499      C2500   1.423       .  A
C2499      O2504   1.372       .  S
C2500      C2501   1.406       .  A
C2501      C2502   1.415       .  A
C2501      H2505   1.083       .  S
C2502      O2506   1.371       .  S
O2504      H2508   0.992       .  S
O2506      H2507   0.992       .  S
C2509      C2510   1.408   1_565  A
C2509      C2514   1.408       .  A
C2510      C2511   1.406       .  A
C2510      H2515   1.083       .  S
C2511      C2512   1.412       .  A
C2511      O2516   1.372       .  S
C2512      C2513   1.403   1_545  A
C2513      C2514   1.395       .  A
C2513      H2517   1.084       .  S
C2514      O2518   1.372       .  S
O2516      H2520   0.992       .  S
O2518      H2519   0.992       .  S
C2521      C2522   1.407   1_565  A
C2521      C2526   1.409       .  A
C2522      C2523   1.413       .  A
C2522      H2527   1.083       .  S
C2523      C2524   1.410   1_545  A
C2523      O2528   1.372       .  S
C2524      C2525   1.406       .  A
C2525      C2526   1.404       .  A
C2525      H2529   1.084       .  S
C2526      O2530   1.372       .  S
O2528      H2532   0.992       .  S
O2530      H2531   0.992       .  S
C2533      C2534   1.411   1_565  A
C2533      C2538   1.410       .  A
C2534      C2535   1.398       .  A
C2534      H2539   1.083       .  S
C2535      C2536   1.411   1_545  A
C2535      O2540   1.373       .  S
C2536      C2537   1.413       .  A
C2537      C2538   1.411       .  A
C2537      H2541   1.083       .  S
C2538      O2542   1.370       .  S
O2540      H2544   0.991       .  S
O2542      H2543   0.991       .  S
C2545      C2546   1.401       .  A
C2545      C2550   1.414       .  A
C2546      C2547   1.416       .  A
C2546      H2551   1.084       .  S
C2547      C2548   1.424       .  A
C2547      O2552   1.374       .  S
C2548      C2549   1.408       .  A
C2549      C2550   1.412       .  A
C2549      H2553   1.083       .  S
C2550      O2554   1.371       .  S
O2552      H2556   0.992       .  S
O2554      H2555   0.992       .  S
C2557      C2558   1.410       .  A
C2557      C2562   1.411       .  A
C2558      C2559   1.415       .  A
C2558      H2563   1.083       .  S
C2559      C2560   1.410       .  A
C2559      O2564   1.371       .  S
C2560      C2561   1.410       .  A
C2561      C2562   1.413       .  A
C2561      H2565   1.084       .  S
C2562      O2566   1.371       .  S
O2564      H2568   0.991       .  S
O2566      H2567   0.991       .  S
C2569      C2570   1.418       .  A
C2569      C2574   1.407       .  A
C2570      C2571   1.421   1_556  A
C2570      H2575   1.083       .  S
C2571      C2572   1.414       .  A
C2571      O2576   1.372       .  S
C2572      C2573   1.420   1_554  A
C2573      C2574   1.408       .  A
C2573      H2577   1.083       .  S
C2574      O2578   1.372       .  S
O2576      H2580   0.992       .  S
O2578      H2579   0.992       .  S
C2581      C2582   1.403       .  A
C2581      C2586   1.420       .  A
C2582      C2583   1.399       .  A
C2582      H2587   1.083       .  S
C2583      C2584   1.415       .  A
C2583      O2588   1.372       .  S
C2584      C2585   1.406       .  A
C2585      C2586   1.414       .  A
C2585      H2589   1.083       .  S
C2586      O2590   1.371       .  S
O2588      H2592   0.992       .  S
O2590      H2591   0.992       .  S
C2593      C2594   1.405       .  A
C2593      C2598   1.409       .  A
C2594      C2595   1.397       .  A
C2594      H2599   1.084       .  S
C2595      C2596   1.412       .  A
C2595      O2600   1.373       .  S
C2596      C2597   1.410       .  A
C2597      C2598   1.408       .  A
C2597      H2601   1.083       .  S
C2598      O2602   1.371       .  S
O2600      H2604   0.992       .  S
O2602      H2603   0.992       .  S
C2605      C2606   1.407       .  A
C2605      C2610   1.408       .  A
C2606      C2607   1.412       .  A
C2606      H2611   1.083       .  S
C2607      C2608   1.410       .  A
C2607      O2612   1.371       .  S
C2608      C2609   1.402       .  A
C2609      C2610   1.401       .  A
C2609      H2613   1.084       .  S
C2610      O2614   1.373       .  S
O2612      H2616   0.992       .  S
O2614      H2615   0.992       .  S
C2617      C2618   1.413       .  A
C2617      C2622   1.408       .  A
C2618      C2619   1.410   1_556  A
C2618      H2623   1.083       .  S
C2619      C2620   1.412       .  A
C2619      O2624   1.371       .  S
C2620      C2621   1.411   1_554  A
C2621      C2622   1.398       .  A
C2621      H2625   1.083       .  S
C2622      O2626   1.372       .  S
O2624      H2628   0.992       .  S
O2626      H2627   0.991       .  S
C2629      C2630   1.404       .  A
C2629      C2634   1.412       .  A
C2630      C2631   1.396       .  A
C2630      H2635   1.084       .  S
C2631      C2632   1.410       .  A
C2631      O2636   1.372       .  S
C2632      C2633   1.407       .  A
C2633      C2634   1.408       .  A
C2633      H2637   1.083       .  S
C2634      O2638   1.371       .  S
O2636      H2640   0.992       .  S
O2638      H2639   0.992       .  S
C2641      C2642   1.412       .  A
C2641      C2646   1.405       .  A
C2642      C2643   1.415       .  A
C2642      H2647   1.083       .  S
C2643      C2644   1.414       .  A
C2643      O2648   1.371       .  S
C2644      C2645   1.416       .  A
C2645      C2646   1.404       .  A
C2645      H2649   1.083       .  S
C2646      O2650   1.372       .  S
O2648      H2652   0.991       .  S
O2650      H2651   0.992       .  S
C2653      C2654   1.409       .  A
C2653      C2658   1.407       .  A
C2654      C2655   1.417       .  A
C2654      H2659   1.083       .  S
C2655      C2656   1.412       .  A
C2655      O2660   1.371       .  S
C2656      C2657   1.406       .  A
C2657      C2658   1.397       .  A
C2657      H2661   1.084       .  S
C2658      O2662   1.372       .  S
O2660      H2664   0.992       .  S
O2662      H2663   0.991       .  S
C2665      C2666   1.399       .  A
C2665      C2670   1.415       .  A
C2666      C2667   1.400       .  A
C2666      H2671   1.084       .  S
C2667      C2668   1.423       .  A
C2667      O2672   1.372       .  S
C2668      C2669   1.407       .  A
C2669      C2670   1.411       .  A
C2669      H2673   1.083       .  S
C2670      O2674   1.371       .  S
O2672      H2676   0.992       .  S
O2674      H2675   0.992       .  S
C2677      C2678   1.402       .  A
C2677      C2682   1.415       .  A
C2678      C2679   1.397       .  A
C2678      H2683   1.084       .  S
C2679      C2680   1.416       .  A
C2679      O2684   1.372       .  S
C2680      C2681   1.403       .  A
C2681      C2682   1.405       .  A
C2681      H2685   1.083       .  S
C2682      O2686   1.371       .  S
O2684      H2688   0.992       .  S
O2686      H2687   0.991       .  S
C2689      C2690   1.411       .  A
C2689      C2694   1.412       .  A
C2690      C2691   1.416       .  A
C2690      H2695   1.083       .  S
C2691      C2692   1.411       .  A
C2691      O2696   1.371       .  S
C2692      C2693   1.412       .  A
C2693      C2694   1.416       .  A
C2693      H2697   1.083       .  S
C2694      O2698   1.371       .  S
O2696      H2700   0.992       .  S
O2698      H2699   0.992       .  S
C2701      C2702   1.411       .  A
C2701      C2706   1.412       .  A
C2702      C2703   1.409       .  A
C2702      H2707   1.083       .  S
C2703      C2704   1.412       .  A
C2703      O2708   1.371       .  S
C2704      C2705   1.402       .  A
C2705      C2706   1.393       .  A
C2705      H2709   1.084       .  S
C2706      O2710   1.371       .  S
O2708      H2712   0.992       .  S
O2710      H2711   0.992       .  S
C2713      C2714   1.414       .  A
C2713      C2718   1.411       .  A
C2714      C2715   1.417       .  A
C2714      H2719   1.083       .  S
C2715      C2716   1.415       .  A
C2715      O2720   1.371       .  S
C2716      C2717   1.414       .  A
C2717      C2718   1.407       .  A
C2717      H2721   1.083       .  S
C2718      O2722   1.371       .  S
O2720      H2724   0.992       .  S
O2722      H2723   0.992       .  S
C2725      C2726   1.405       .  A
C2725      C2730   1.412       .  A
C2726      C2727   1.403   1_556  A
C2726      H2731   1.084       .  S
C2727      C2728   1.410       .  A
C2727      O2732   1.372       .  S
C2728      C2729   1.408       .  A
C2729      C2730   1.415   1_554  A
C2729      H2733   1.083       .  S
C2730      O2734   1.371       .  S
O2732      H2736   0.992       .  S
O2734      H2735   0.992       .  S
C2737      C2738   1.401       .  A
C2737      C2742   1.421       .  A
C2738      C2739   1.401       .  A
C2738      H2743   1.083       .  S
C2739      C2740   1.422       .  A
C2739      O2744   1.372       .  S
C2740      C2741   1.407       .  A
C2741      C2742   1.416       .  A
C2741      H2745   1.083       .  S
C2742      O2746   1.371       .  S
O2744      H2748   0.992       .  S
O2746      H2747   0.992       .  S
C2749      C2750   1.404       .  A
C2749      C2754   1.415       .  A
C2750      C2751   1.399   1_455  A
C2750      H2755   1.084       .  S
C2751      C2752   1.414       .  A
C2751      O2756   1.373       .  S
C2752      C2753   1.405       .  A
C2753      C2754   1.408   1_655  A
C2753      H2757   1.083       .  S
C2754      O2758   1.371       .  S
O2756      H2760   0.992       .  S
O2758      H2759   0.992       .  S
C2761      C2762   1.409       .  A
C2761      C2766   1.414       .  A
C2762      C2763   1.408   1_554  A
C2762      H2767   1.084       .  S
C2763      C2764   1.410       .  A
C2763      O2768   1.371       .  S
C2764      C2765   1.414       .  A
C2765      C2766   1.423   1_556  A
C2765      H2769   1.083       .  S
C2766      O2770   1.371       .  S
O2768      H2772   0.991       .  S
O2770      H2771   0.992       .  S
C2773      C2774   1.406       .  A
C2773      C2778   1.411       .  A
C2774      C2775   1.406   1_655  A
C2774      H2779   1.083       .  S
C2775      C2776   1.411       .  A
C2775      O2780   1.371       .  S
C2776      C2777   1.403       .  A
C2777      C2778   1.400   1_455  A
C2777      H2781   1.084       .  S
C2778      O2782   1.372       .  S
O2780      H2784   0.992       .  S
O2782      H2783   0.992       .  S
C2785      C2786   1.409       .  A
C2785      C2790   1.415       .  A
C2786      C2787   1.420       .  A
C2786      H2791   1.083       .  S
C2787      C2788   1.417       .  A
C2787      O2792   1.371       .  S
C2788      C2789   1.408       .  A
C2789      C2790   1.416       .  A
C2789      H2793   1.083       .  S
C2790      O2794   1.372       .  S
O2792      H2796   0.991       .  S
O2794      H2795   0.992       .  S
C2797      C2798   1.407       .  A
C2797      C2802   1.412       .  A
C2798      C2799   1.412       .  A
C2798      H2803   1.083       .  S
C2799      C2800   1.412       .  A
C2799      O2804   1.371       .  S
C2800      C2801   1.403       .  A
C2801      C2802   1.397       .  A
C2801      H2805   1.084       .  S
C2802      O2806   1.373       .  S
O2804      H2808   0.992       .  S
O2806      H2807   0.992       .  S
C2809      C2810   1.404       .  A
C2809      C2814   1.407       .  A
C2810      C2811   1.407       .  A
C2810      H2815   1.084       .  S
C2811      C2812   1.409       .  A
C2811      O2816   1.372       .  S
C2812      C2813   1.403       .  A
C2813      C2814   1.399       .  A
C2813      H2817   1.084       .  S
C2814      O2818   1.372       .  S
O2816      H2820   0.992       .  S
O2818      H2819   0.992       .  S
C2821      C2822   1.404       .  A
C2821      C2826   1.412       .  A
C2822      C2823   1.407       .  A
C2822      H2827   1.083       .  S
C2823      C2824   1.416       .  A
C2823      O2828   1.371       .  S
C2824      C2825   1.403       .  A
C2825      C2826   1.398       .  A
C2825      H2829   1.084       .  S
C2826      O2830   1.373       .  S
O2828      H2832   0.992       .  S
O2830      H2831   0.992       .  S
C2833      C2834   1.419       .  A
C2833      C2838   1.415       .  A
C2834      C2835   1.409       .  A
C2834      H2839   1.083       .  S
C2835      C2836   1.407       .  A
C2835      O2840   1.372       .  S
C2836      C2837   1.415       .  A
C2837      C2838   1.420       .  A
C2837      H2841   1.083       .  S
C2838      O2842   1.371   1_554  S
O2840      H2844   0.992       .  S
O2842      H2843   0.992       .  S
C2845      C2846   1.420       .  A
C2845      C2850   1.411       .  A
C2846      C2847   1.415       .  A
C2846      H2851   1.083       .  S
C2847      C2848   1.408       .  A
C2847      O2852   1.371       .  S
C2848      C2849   1.417       .  A
C2849      C2850   1.413       .  A
C2849      H2853   1.081       .  S
C2850      O2854   1.371       .  S
O2852      H2856   0.992       .  S
O2854      H2855   0.992       .  S
C2857      C2858   1.410       .  A
C2857      C2862   1.423       .  A
C2858      C2859   1.416       .  A
C2858      H2863   1.083       .  S
C2859      C2860   1.416       .  A
C2859      O2864   1.371       .  S
C2860      C2861   1.402       .  A
C2861      C2862   1.415       .  A
C2861      H2865   1.083       .  S
C2862      O2866   1.373       .  S
O2864      H2868   0.992       .  S
O2866      H2867   0.992       .  S
C2869      C2870   1.405       .  A
C2869      C2874   1.426       .  A
C2870      C2871   1.414       .  A
C2870      H2875   1.083       .  S
C2871      C2872   1.422       .  A
C2871      O2876   1.371       .  S
C2872      C2873   1.402       .  A
C2873      C2874   1.412       .  A
C2873      H2877   1.083       .  S
C2874      O2878   1.371       .  S
O2876      H2880   0.992       .  S
O2878      H2879   0.992       .  S
C2881      C2882   1.422       .  A
C2881      C2886   1.411       .  A
C2882      C2883   1.413       .  A
C2882      H2887   1.083       .  S
C2883      C2884   1.407       .  A
C2883      O2888   1.372       .  S
C2884      C2885   1.418       .  A
C2885      C2886   1.417       .  A
C2885      H2889   1.083       .  S
C2886      O2890   1.371       .  S
O2888      H2892   0.992       .  S
O2890      H2891   0.992       .  S
C2893      C2894   1.410       .  A
C2893      C2898   1.421       .  A
C2894      C2895   1.419       .  A
C2894      H2899   1.083       .  S
C2895      C2896   1.416       .  A
C2895      O2900   1.373       .  S
C2896      C2897   1.405       .  A
C2897      C2898   1.416       .  A
C2897      H2901   1.083       .  S
C2898      O2902   1.371       .  S
O2900      H2904   0.992       .  S
O2902      H2903   0.992       .  S
C2905      C2906   1.408       .  A
C2905      C2910   1.408       .  A
C2906      C2907   1.398       .  A
C2906      H2911   1.084       .  S
C2907      C2908   1.414       .  A
C2907      O2912   1.372       .  S
C2908      C2909   1.414       .  A
C2909      C2910   1.414       .  A
C2909      H2913   1.083       .  S
C2910      O2914   1.371       .  S
O2912      H2916   0.992       .  S
O2914      H2915   0.992       .  S
C2917      C2918   1.414       .  A
C2917      C2922   1.410       .  A
C2918      C2919   1.415       .  A
C2918      H2923   1.083       .  S
C2919      C2920   1.413       .  A
C2919      O2924   1.371       .  S
C2920      C2921   1.415       .  A
C2921      C2922   1.405       .  A
C2921      H2925   1.083       .  S
C2922      O2926   1.372       .  S
O2924      H2928   0.992       .  S
O2926      H2927   0.992       .  S
C2929      C2930   1.415       .  A
C2929      C2934   1.413       .  A
C2930      C2931   1.402       .  A
C2930      H2935   1.083       .  S
C2931      C2932   1.404       .  A
C2931      O2936   1.372       .  S
C2932      C2933   1.410       .  A
C2933      C2934   1.410       .  A
C2933      H2937   1.084   1_545  S
C2934      O2938   1.371       .  S
O2936      H2940   0.992       .  S
O2938      H2939   0.992       .  S
C2941      C2942   1.413       .  A
C2941      C2946   1.413       .  A
C2942      C2943   1.403       .  A
C2942      H2947   1.083       .  S
C2943      C2944   1.406       .  A
C2943      O2948   1.371       .  S
C2944      C2945   1.410       .  A
C2945      C2946   1.414       .  A
C2945      H2949   1.083   1_545  S
C2946      O2950   1.371       .  S
O2948      H2952   0.992       .  S
O2950      H2951   0.992       .  S
C2953      C2954   1.405       .  A
C2953      C2958   1.419       .  A
C2954      C2955   1.400       .  A
C2954      H2959   1.083       .  S
C2955      C2956   1.418       .  A
C2955      O2960   1.373       .  S
C2956      C2957   1.405       .  A
C2957      C2958   1.413       .  A
C2957      H2961   1.083   1_554  S
C2958      O2962   1.371       .  S
O2960      H2964   0.991       .  S
O2962      H2963   0.992       .  S
C2965      C2966   1.413       .  A
C2965      C2970   1.423       .  A
C2966      C2967   1.421       .  A
C2966      H2971   1.083       .  S
C2967      C2968   1.420       .  A
C2967      O2972   1.371       .  S
C2968      C2969   1.406       .  A
C2969      C2970   1.409       .  A
C2969      H2973   1.083       .  S
C2970      O2974   1.372       .  S
O2972      H2976   0.992       .  S
O2974      H2975   0.992       .  S
C2977      C2978   1.413       .  A
C2977      C2982   1.408       .  A
C2978      C2979   1.416       .  A
C2978      H2983   1.083       .  S
C2979      C2980   1.412       .  A
C2979      O2984   1.370       .  S
C2980      C2981   1.417       .  A
C2981      C2982   1.405       .  A
C2981      H2985   1.083       .  S
C2982      O2986   1.373       .  S
O2984      H2988   0.992       .  S
O2986      H2987   0.992       .  S
C2989      C2990   1.402       .  A
C2989      C2994   1.411       .  A
C2990      C2991   1.401       .  A
C2990      H2995   1.084       .  S
C2991      C2992   1.412       .  A
C2991      O2996   1.372       .  S
C2992      C2993   1.407       .  A
C2993      C2994   1.415       .  A
C2993      H2997   1.083       .  S
C2994      O2998   1.371       .  S
O2996      H3000   0.991       .  S
O2998      H2999   0.992       .  S
C3001      C3002   1.398       .  A
C3001      C3006   1.421       .  A
C3002      C3003   1.401       .  A
C3002      H3007   1.084       .  S
C3003      C3004   1.425   1_556  A
C3003      O3008   1.370       .  S
C3004      C3005   1.407       .  A
C3005      C3006   1.415   1_554  A
C3005      H3009   1.083       .  S
C3006      O3010   1.371   1_556  S
O3008      H3012   0.992       .  S
O3010      H3011   0.991       .  S
C3013      C3014   1.407       .  A
C3013      C3018   1.424       .  A
C3014      C3015   1.417       .  A
C3014      H3019   1.083       .  S
C3015      C3016   1.423       .  A
C3015      O3020   1.371       .  S
C3016      C3017   1.402       .  A
C3017      C3018   1.412       .  A
C3017      H3021   1.083       .  S
C3018      O3022   1.373       .  S
O3020      H3024   0.992       .  S
O3022      H3023   0.992       .  S
C3025      C3026   1.407       .  A
C3025      C3030   1.411       .  A
C3026      C3027   1.405       .  A
C3026      H3031   1.083       .  S
C3027      C3028   1.412       .  A
C3027      O3032   1.370       .  S
C3028      C3029   1.408       .  A
C3029      C3030   1.399       .  A
C3029      H3033   1.084       .  S
C3030      O3034   1.372       .  S
O3032      H3036   0.992       .  S
O3034      H3035   0.992       .  S
C3037      C3038   1.411       .  A
C3037      C3042   1.412       .  A
C3038      C3039   1.410       .  A
C3038      H3043   1.084       .  S
C3039      C3040   1.410       .  A
C3039      O3044   1.371       .  S
C3040      C3041   1.412       .  A
C3041      C3042   1.421       .  A
C3041      H3045   1.083       .  S
C3042      O3046   1.371       .  S
O3044      H3048   0.991       .  S
O3046      H3047   0.991       .  S
C3049      C3050   1.421   1_554  A
C3049      C3054   1.414       .  A
C3050      C3051   1.416       .  A
C3050      H3055   1.083       .  S
C3051      C3052   1.408       .  A
C3051      O3056   1.371       .  S
C3052      C3053   1.414       .  A
C3053      C3054   1.414   1_556  A
C3053      H3057   1.083       .  S
C3054      O3058   1.371       .  S
O3056      H3060   0.992       .  S
O3058      H3059   0.991       .  S
C3061      C3062   1.407       .  A
C3061      C3066   1.415       .  A
C3062      C3063   1.400       .  A
C3062      H3067   1.083       .  S
C3063      C3064   1.411       .  A
C3063      O3068   1.372       .  S
C3064      C3065   1.403       .  A
C3065      C3066   1.403       .  A
C3065      H3069   1.084       .  S
C3066      O3070   1.371       .  S
O3068      H3072   0.992       .  S
O3070      H3071   0.992       .  S
