geometry optimzed in LAMMPS
_audit_creation_date              2020-12-01 
_audit_creation_method            'lammps2cif' 
_symmetry_space_group_name_H-M    'P1' 
_symmetry_Int_Tables_number       1 
_symmetry_cell_setting            triclinic 
loop_ 
_symmetry_equiv_pos_as_xyz 
  x,y,z 
_cell_length_a                    62.01002028 
_cell_length_b                    61.759017086801364 
_cell_length_c                    61.9576059012941 
_cell_angle_alpha                 90.01263381030668 
_cell_angle_beta                  90.05068933866616 
_cell_angle_gamma                 89.99230625851823 
loop_ 
_atom_site_label 
_atom_site_type_symbol 
_atom_site_fract_x 
_atom_site_fract_y 
_atom_site_fract_z 
_atom_site_charge 
C1          C  0.74552514  0.72233025  0.71624684     0.80100
N2          N  0.73798865  0.74142720  0.70846099    -0.78200
C3          C  0.71985908  0.75055359  0.71674513     0.82500
N4          N  0.70899521  0.73999112  0.73261394    -0.78200
C5          C  0.71637029  0.72093761  0.74064562     0.82600
N6          N  0.73467274  0.71223116  0.73233202    -0.79900
C7          C  0.25433845  0.73906073  0.25535500     0.80100
N8          N  0.23637656  0.72865274  0.26226507    -0.78200
C9          C  0.22832897  0.71149930  0.25124993     0.82500
N10         N  0.23830056  0.70484023  0.23289999    -0.78200
C11         C  0.25631355  0.71509999  0.22576439     0.82600
N12         N  0.26411907  0.73223914  0.23704317    -0.79900
C13         C  0.70545419  0.22039001  0.69688230     0.80100
N14         N  0.69245529  0.22720385  0.71309816    -0.78200
C15         C  0.69810891  0.24438316  0.72551334     0.82500
N16         N  0.71688983  0.25495358  0.72143676    -0.78200
C17         C  0.73009325  0.24826861  0.70530590     0.82600
N18         N  0.72426274  0.23093854  0.69318322    -0.79900
C19         C  0.25231739  0.25127699  0.74244747     0.80100
N20         N  0.23528730  0.25841384  0.73071788    -0.78200
C21         C  0.22861248  0.24762833  0.71284718     0.82500
N22         N  0.23920420  0.22933645  0.70667420    -0.78200
C23         C  0.25629655  0.22187299  0.71832666     0.82600
N24         N  0.26281342  0.23312805  0.73603615    -0.79900
C25         C  0.25678407  0.73431659  0.71570818     0.80100
N26         N  0.24057262  0.72406697  0.70500720    -0.78200
C27         C  0.22985358  0.70735228  0.71449436     0.82500
N28         N  0.23572488  0.70083590  0.73463221    -0.78200
C29         C  0.25193963  0.71091852  0.74539485     0.82600
N30         N  0.26246252  0.72754660  0.73573777    -0.79900
C31         C  0.71859873  0.25294490  0.24668412     0.80100
N32         N  0.70826136  0.23538119  0.25492758    -0.78200
C33         C  0.69175191  0.22604305  0.24395215     0.82500
N34         N  0.68569078  0.23434714  0.22466796    -0.78200
C35         C  0.69562375  0.25200059  0.21628706     0.82600
N36         N  0.71210278  0.26126868  0.22741728    -0.79900
O37         O  0.50098366  0.49502178  0.10213703    -0.73100
O38         O  0.44715672  0.46015745  0.10864853    -0.74100
O39         O  0.45687867  0.50482891  0.10770530    -0.62700
O40         O  0.49098341  0.45040586  0.10292561    -0.71100
O41         O  0.49578990  0.45009101  0.13843962    -0.70700
O42         O  0.46103960  0.50475863  0.14335944    -0.61900
O43         O  0.45126672  0.45987312  0.14425529    -0.74400
O44         O  0.50550416  0.49494769  0.13759431    -0.73200
Cu45       Cu  0.47384031  0.47764182  0.10415059     1.04600
Cu46       Cu  0.47856323  0.47741788  0.14220164     1.04300
C47         C  0.51182070  0.50056088  0.11876468     0.93100
C48         C  0.44083343  0.45429354  0.12735386     0.92200
C49         C  0.45351755  0.51330341  0.12616840     0.84400
C50         C  0.49883661  0.44167043  0.11985064     0.90700
N51         N  0.29350137  0.31339702  0.13482722    -0.27400
N52         N  0.30305045  0.32464598  0.15031094    -0.35300
C53         C  0.29870171  0.31526004  0.16943747     0.00900
C54         C  0.28600197  0.29713621  0.16579549     0.06900
C55         C  0.28294061  0.29663988  0.14369103    -0.06200
H56         H  0.30373239  0.32175517  0.18483226     0.07600
H57         H  0.27320629  0.28522069  0.13470996     0.08800
Cu58       Cu  0.32068935  0.35292144  0.14524318     0.44200
Cu59       Cu  0.29309093  0.32146840  0.10232544     0.42000
Cu60       Cu  0.31700244  0.37224131  0.09052761     0.43900
N61         N  0.33781733  0.37959947  0.13391295    -0.34800
N62         N  0.33613318  0.38646510  0.11378215    -0.29100
C63         C  0.35039692  0.40242193  0.11043648    -0.05200
C64         C  0.36154042  0.40605229  0.12937674     0.07000
C65         C  0.35328443  0.39119727  0.14395650     0.00800
H66         H  0.35334863  0.40996599  0.09495690     0.08500
H67         H  0.35902475  0.38812504  0.16016293     0.07600
N68         N  0.30098662  0.35403620  0.06766925    -0.36300
N69         N  0.29236721  0.33491652  0.07167052    -0.28500
C70         C  0.28426045  0.32679650  0.05316696    -0.03700
C71         C  0.28768858  0.34180451  0.03688640     0.04900
C72         C  0.29861708  0.35867732  0.04666285     0.03000
H73         H  0.27666722  0.31110133  0.05162762     0.08100
H74         H  0.30515066  0.37294951  0.03895894     0.06900
N75         N  0.33149932  0.68074332  0.12749752    -0.27400
N76         N  0.33602890  0.66466404  0.14080931    -0.35300
C77         C  0.32434411  0.66707699  0.15888511     0.00900
C78         C  0.31186879  0.68559549  0.15690761     0.06900
C79         C  0.31670374  0.69368986  0.13664307    -0.06200
H80         H  0.32485219  0.65608813  0.17247468     0.07600
H81         H  0.30982126  0.70763275  0.12873348     0.08800
Cu82       Cu  0.35727763  0.63979209  0.13374299     0.44200
Cu83       Cu  0.34514852  0.68459004  0.09738720     0.42000
Cu84       Cu  0.38373979  0.64412924  0.08201400     0.43900
N85         N  0.37911619  0.61719898  0.12230208    -0.34800
N86         N  0.38894562  0.61904459  0.10346982    -0.29100
C87         C  0.40255918  0.60234067  0.10094474    -0.05200
C88         C  0.40106854  0.58923827  0.11893750     0.07000
C89         C  0.38613127  0.59914625  0.13223409     0.00800
H90         H  0.41283256  0.59992871  0.08704298     0.08500
H91         H  0.38110096  0.59397028  0.14812483     0.07600
N92         N  0.37466454  0.66950775  0.06225349    -0.36300
N93         N  0.36038632  0.68434958  0.06781391    -0.28500
C94         C  0.35667372  0.69740759  0.05085993    -0.03700
C95         C  0.36947724  0.69062052  0.03387515     0.04900
C96         C  0.38045814  0.67272738  0.04163994     0.03000
H97         H  0.34482978  0.71027099  0.05061296     0.08100
H98         H  0.39085042  0.66196868  0.03261730     0.06900
N99         N  0.63837175  0.29108721  0.10837024    -0.27400
N100        N  0.62825386  0.30322547  0.12275686    -0.35300
C101        C  0.63727908  0.30019119  0.14221803     0.00900
C102        C  0.65370567  0.28527601  0.14009518     0.06900
C103        C  0.65405055  0.27987756  0.11841289    -0.06200
H104        H  0.63190604  0.30788688  0.15695463     0.07600
H105        H  0.66481704  0.26864705  0.11047650     0.08800
Cu106      Cu  0.60215434  0.32294043  0.11625837     0.44200
Cu107      Cu  0.63031068  0.28987780  0.07583865     0.42000
Cu108      Cu  0.58526757  0.32463086  0.06169801     0.43900
N109        N  0.57672424  0.34182306  0.10591122    -0.34800
N110        N  0.57067864  0.34264867  0.08551836    -0.29100
C111        C  0.55471053  0.35716773  0.08338528    -0.05200
C112        C  0.55018297  0.36567982  0.10356900     0.07000
C113        C  0.56464402  0.35568847  0.11742316     0.00800
H114        H  0.54770305  0.36170049  0.06808115     0.08500
H115        H  0.56662751  0.35869832  0.13451536     0.07600
N116        N  0.60094431  0.30465064  0.04022380    -0.36300
N117        N  0.61749282  0.29200484  0.04493652    -0.28500
C118        C  0.62356572  0.28135472  0.02693626    -0.03700
C119        C  0.61003269  0.28766723  0.01027754     0.04900
C120        C  0.59593710  0.30234636  0.01932971     0.03000
H121        H  0.63658498  0.26973241  0.02618066     0.08100
H122        H  0.58299832  0.31087418  0.01124854     0.06900
N123        N  0.67338220  0.62889252  0.11922234    -0.27400
N124        N  0.66057721  0.61929383  0.13333844    -0.35300
C125        C  0.66375577  0.62812328  0.15287927     0.00900
C126        C  0.67942936  0.64389244  0.15096758     0.06900
C127        C  0.68502989  0.64412658  0.12940720    -0.06200
H128        H  0.65502684  0.62356140  0.16727475     0.07600
H129        H  0.69677833  0.65451269  0.12170713     0.08800
Cu130      Cu  0.63903129  0.59492534  0.12584073     0.44200
Cu131      Cu  0.67449881  0.62119610  0.08682708     0.42000
Cu132      Cu  0.64038431  0.57636063  0.07116712     0.43900
N133        N  0.61847212  0.57141708  0.11407730    -0.34800
N134        N  0.61908275  0.56451783  0.09391623    -0.29100
C135        C  0.60305414  0.55023923  0.09080448    -0.05200
C136        C  0.59192325  0.54786686  0.11000633     0.07000
C137        C  0.60204474  0.56169666  0.12438695     0.00800
H138        H  0.59936924  0.54261660  0.07551417     0.08500
H139        H  0.59732511  0.56523946  0.14080134     0.07600
N140        N  0.65943479  0.59366993  0.04994317    -0.36300
N141        N  0.67165105  0.61030145  0.05547097    -0.28500
C142        C  0.68036256  0.61897761  0.03757651    -0.03700
C143        C  0.67356036  0.60694868  0.02002633     0.04900
C144        C  0.66011062  0.59124111  0.02844882     0.03000
H145        H  0.69040007  0.63330219  0.03731082     0.08100
H146        H  0.65058164  0.57959252  0.01955241     0.06900
O147        O  0.50301001  0.50432235  0.85202617    -0.73100
O148        O  0.45219617  0.46512029  0.85630007    -0.74100
O149        O  0.49636000  0.45885551  0.84963160    -0.62700
O150        O  0.45869266  0.51031563  0.85868476    -0.71100
O151        O  0.45368920  0.51307697  0.82345106    -0.70700
O152        O  0.49202544  0.46129178  0.81411558    -0.61900
O153        O  0.44711080  0.46741544  0.82097951    -0.74400
O154        O  0.49861326  0.50723668  0.81662105    -0.73200
Cu155      Cu  0.47780502  0.48456961  0.85531301     1.04600
Cu156      Cu  0.47273130  0.48735103  0.81748741     1.04300
C157        C  0.50847196  0.51256565  0.83396089     0.93100
C158        C  0.44158909  0.45992494  0.83940749     0.92200
C159        C  0.49959730  0.45154309  0.83065212     0.84400
C160        C  0.45010119  0.51990780  0.84261485     0.90700
N161        N  0.29151514  0.31728314  0.84511164    -0.27400
N162        N  0.30300900  0.32830022  0.83086380    -0.35300
C163        C  0.29881341  0.32070945  0.81099378     0.00900
C164        C  0.28383742  0.30425797  0.81272323     0.06900
C165        C  0.27973199  0.30231887  0.83458378    -0.06200
H166        H  0.30638784  0.32660272  0.79642168     0.07600
H167        H  0.26884007  0.29100635  0.84224623     0.08800
Cu168      Cu  0.32420293  0.35310755  0.83823188     0.44200
Cu169      Cu  0.29204786  0.32311795  0.87817233     0.42000
Cu170      Cu  0.32353673  0.37021442  0.89307244     0.43900
N171        N  0.34419837  0.37727556  0.84980560    -0.34800
N172        N  0.34377674  0.38364541  0.87014607    -0.29100
C173        C  0.35887554  0.39894691  0.87314187    -0.05200
C174        C  0.36947486  0.40222683  0.85376844     0.07000
C175        C  0.35959836  0.38838091  0.83924538     0.00800
H176        H  0.36202214  0.40686128  0.88838781     0.08500
H177        H  0.36370825  0.38610706  0.82242977     0.07600
N178        N  0.30559954  0.35212669  0.91471391    -0.36300
N179        N  0.29451953  0.33454646  0.90964575    -0.28500
C180        C  0.28564580  0.32633287  0.92774470    -0.03700
C181        C  0.29138756  0.33953831  0.94488133     0.04900
C182        C  0.30392852  0.35570378  0.93600711     0.03000
H183        H  0.27566967  0.31198117  0.92831992     0.08100
H184        H  0.31166644  0.36889222  0.94451253     0.06900
N185        N  0.31560611  0.67830128  0.85176582    -0.27400
N186        N  0.32165391  0.66300998  0.83813278    -0.35300
C187        C  0.30982729  0.66465303  0.82006127     0.00900
C188        C  0.29561576  0.68184153  0.82224037     0.06900
C189        C  0.29964902  0.68997069  0.84274356    -0.06200
H190        H  0.31185824  0.65439076  0.80605326     0.07600
H191        H  0.29187853  0.70342220  0.85066210     0.08800
Cu192      Cu  0.34617593  0.64091655  0.84380152     0.44200
Cu193      Cu  0.32997448  0.68350259  0.88154179     0.42000
Cu194      Cu  0.37734539  0.65051479  0.89127856     0.43900
N195        N  0.37233155  0.62194200  0.85248425    -0.34800
N196        N  0.38392197  0.62572279  0.86996846    -0.29100
C197        C  0.39937731  0.61058985  0.87164386    -0.05200
C198        C  0.39759787  0.59668949  0.85423385     0.07000
C199        C  0.38012441  0.60425544  0.84249563     0.00800
H200        H  0.41090651  0.60961465  0.88472720     0.08500
H201        H  0.37316401  0.59719586  0.82812876     0.07600
N202        N  0.36562575  0.67317120  0.91273931    -0.36300
N203        N  0.34828560  0.68515547  0.90949156    -0.28500
C204        C  0.34445432  0.69702931  0.92729975    -0.03700
C205        C  0.36006972  0.69206204  0.94258641     0.04900
C206        C  0.37324691  0.67701088  0.93261716     0.03000
H207        H  0.33099394  0.70798416  0.92897435     0.08100
H208        H  0.38682847  0.66860919  0.93971202     0.06900
N209        N  0.62403919  0.28544117  0.82041990    -0.27400
N210        N  0.61582533  0.29953697  0.80661009    -0.35300
C211        C  0.62479448  0.29640987  0.78714322     0.00900
C212        C  0.63958438  0.27973606  0.78883687     0.06900
C213        C  0.63848696  0.27300313  0.81008407    -0.06200
H214        H  0.62074156  0.30568239  0.77292924     0.07600
H215        H  0.64785752  0.26029326  0.81760904     0.08800
Cu216      Cu  0.59343440  0.32306836  0.81435441     0.44200
Cu217      Cu  0.61603797  0.28380425  0.85277552     0.42000
Cu218      Cu  0.57713106  0.32381827  0.86953423     0.43900
N219        N  0.57266741  0.34610825  0.82667107    -0.34800
N220        N  0.56666160  0.34625718  0.84710333    -0.29100
C221        C  0.55323588  0.36297142  0.85037709    -0.05200
C222        C  0.55074755  0.37402841  0.83109947     0.07000
C223        C  0.56322459  0.36276789  0.81633408     0.00800
H224        H  0.54591722  0.36690024  0.86573540     0.08500
H225        H  0.56514631  0.36609794  0.79933104     0.07600
N226        N  0.59084804  0.30133211  0.89008614    -0.36300
N227        N  0.60539738  0.28684155  0.88424010    -0.28500
C228        C  0.61196213  0.27583564  0.90182461    -0.03700
C229        C  0.60060788  0.28355564  0.91941968     0.04900
C230        C  0.58760470  0.29984279  0.91141916     0.03000
H231        H  0.62428318  0.26343206  0.90184648     0.08100
H232        H  0.57716509  0.31045919  0.92056627     0.06900
N233        N  0.65973969  0.65531182  0.83393119    -0.27400
N234        N  0.64882095  0.64515118  0.81858172    -0.35300
C235        C  0.65422451  0.65364531  0.79936377     0.00900
C236        C  0.66916685  0.66985640  0.80283367     0.06900
C237        C  0.67221561  0.67058707  0.82486565    -0.06200
H238        H  0.64784681  0.64827951  0.78401310     0.07600
H239        H  0.68321457  0.68097794  0.83362178     0.08800
Cu240      Cu  0.62728678  0.61986577  0.82348630     0.44200
Cu241      Cu  0.65906890  0.64762933  0.86643757     0.42000
Cu242      Cu  0.62685459  0.60106206  0.87754096     0.43900
N243        N  0.60673519  0.59547131  0.83384334    -0.34800
N244        N  0.60680510  0.58878277  0.85407244    -0.29100
C245        C  0.59140931  0.57380734  0.85672598    -0.05200
C246        C  0.58112885  0.57067514  0.83718338     0.07000
C247        C  0.59119326  0.58477544  0.82295888     0.00800
H248        H  0.58765301  0.56606189  0.87192974     0.08500
H249        H  0.58706139  0.58768872  0.80625538     0.07600
N250        N  0.64659113  0.61547007  0.90004144    -0.36300
N251        N  0.65829190  0.63295797  0.89642499    -0.28500
C252        C  0.66908837  0.63813478  0.91459537    -0.03700
C253        C  0.66383009  0.62300145  0.93022026     0.04900
C254        C  0.64963426  0.60891461  0.92040775     0.03000
H255        H  0.68014455  0.65158871  0.91613255     0.08100
H256        H  0.64193009  0.59496191  0.92761727     0.06900
O257        O  0.44488303  0.11153813  0.46300064    -0.73100
O258        O  0.50008959  0.10518894  0.49568092    -0.74100
O259        O  0.45578324  0.10943985  0.50689913    -0.62700
O260        O  0.48867475  0.10715570  0.45154874    -0.71100
O261        O  0.49287264  0.14281773  0.45230588    -0.70700
O262        O  0.45898995  0.14519358  0.50793037    -0.61900
O263        O  0.50349470  0.14083732  0.49672920    -0.74400
O264        O  0.44847824  0.14734851  0.46316877    -0.73200
Cu265      Cu  0.47225083  0.10712748  0.47930267     1.04600
Cu266      Cu  0.47608988  0.14533909  0.48010251     1.04300
C267        C  0.43805197  0.13032938  0.45785301     0.93100
C268        C  0.51077318  0.12198270  0.50116084     0.92200
C269        C  0.45181787  0.12755353  0.51601233     0.84400
C270        C  0.49595203  0.12452564  0.44312098     0.90700
N271        N  0.28239666  0.11889918  0.32412015    -0.27400
N272        N  0.29375317  0.13478838  0.33286698    -0.35300
C273        C  0.28930130  0.15331467  0.32244506     0.00900
C274        C  0.27431976  0.14901714  0.30649031     0.06900
C275        C  0.27041806  0.12698371  0.30789330    -0.06200
H276        H  0.29628970  0.16887667  0.32638011     0.07600
H277        H  0.25982202  0.11740473  0.29786072     0.08800
Cu278      Cu  0.31484021  0.13152659  0.35861683     0.44200
Cu279      Cu  0.28304510  0.08693587  0.33456758     0.42000
Cu280      Cu  0.31454433  0.07930291  0.38263794     0.43900
N281        N  0.33469161  0.12340094  0.38424486    -0.34800
N282        N  0.33432137  0.10393609  0.39301336    -0.29100
C283        C  0.34932399  0.10280869  0.40855033    -0.05200
C284        C  0.35945760  0.12268597  0.40999376     0.07000
C285        C  0.35001107  0.13530285  0.39408392     0.00800
H286        H  0.35305688  0.08825702  0.41749235     0.08500
H287        H  0.35419407  0.15174581  0.38976496     0.07600
N288        N  0.29651115  0.05517104  0.36857446    -0.36300
N289        N  0.28535110  0.05747493  0.35054959    -0.28500
C290        C  0.27703113  0.03811308  0.34497506    -0.03700
C291        C  0.28294076  0.02316385  0.36056684     0.04900
C292        C  0.29546382  0.03450885  0.37508603     0.03000
H293        H  0.26772554  0.03506407  0.33051269     0.08100
H294        H  0.30407528  0.02803214  0.38883862     0.06900
N295        N  0.63397508  0.12063147  0.28863016    -0.27400
N296        N  0.62304392  0.13497631  0.30009703    -0.35300
C297        C  0.63081659  0.15484019  0.29603333     0.00900
C298        C  0.64759417  0.15293558  0.28152642     0.06900
C299        C  0.64910368  0.13104329  0.27702676    -0.06200
H300        H  0.62463922  0.16962574  0.30307058     0.07600
H301        H  0.65995853  0.12328495  0.26577137     0.08800
Cu302      Cu  0.59790609  0.12756682  0.32073879     0.44200
Cu303      Cu  0.62725248  0.08774173  0.28866336     0.42000
Cu304      Cu  0.58439690  0.07187746  0.32590626     0.43900
N305        N  0.57501976  0.11652821  0.34235160    -0.34800
N306        N  0.57012585  0.09584159  0.34446496    -0.29100
C307        C  0.55530045  0.09370346  0.36014708    -0.05200
C308        C  0.55075910  0.11404848  0.36845164     0.07000
C309        C  0.56342719  0.12815738  0.35655299     0.00800
H310        H  0.54860866  0.07841532  0.36541673     0.08500
H311        H  0.56429853  0.14555816  0.35797982     0.07600
N312        N  0.60054193  0.05075824  0.30553346    -0.36300
N313        N  0.61614122  0.05626763  0.29206879    -0.28500
C314        C  0.62300463  0.03845060  0.28156460    -0.03700
C315        C  0.61112421  0.02092383  0.28884806     0.04900
C316        C  0.59703109  0.02939685  0.30392018     0.03000
H317        H  0.63555408  0.03841838  0.26947453     0.08100
H318        H  0.58522444  0.02057389  0.31329073     0.06900
N319        N  0.32460333  0.11979455  0.67925759    -0.27400
N320        N  0.33438107  0.13518275  0.66804210    -0.35300
C321        C  0.32559620  0.15441062  0.67303351     0.00900
C322        C  0.30953659  0.15109253  0.68806543     0.06900
C323        C  0.30916012  0.12896020  0.69156630    -0.06200
H324        H  0.33040480  0.16970204  0.66601176     0.07600
H325        H  0.29863626  0.12021311  0.70241271     0.08800
Cu326      Cu  0.35882834  0.13035654  0.64571355     0.44200
Cu327      Cu  0.33292816  0.08706504  0.67764304     0.42000
Cu328      Cu  0.37913458  0.07675061  0.64335144     0.43900
N329        N  0.38115474  0.12071858  0.62274478    -0.34800
N330        N  0.38859235  0.10069409  0.62204807    -0.29100
C331        C  0.40169715  0.09858115  0.60494319    -0.05200
C332        C  0.40255397  0.11822506  0.59430336     0.07000
C333        C  0.38944323  0.13199641  0.60607201     0.00800
H334        H  0.40957991  0.08367202  0.60027468     0.08500
H335        H  0.38559189  0.14866885  0.60235251     0.07600
N336        N  0.36396233  0.05318004  0.66152566    -0.36300
N337        N  0.34663460  0.05646781  0.67351827    -0.28500
C338        C  0.33990335  0.03725852  0.68139532    -0.03700
C339        C  0.35397186  0.02132607  0.67431438     0.04900
C340        C  0.36885004  0.03201127  0.66163542     0.03000
H341        H  0.32569621  0.03500755  0.69126283     0.08100
H342        H  0.38173505  0.02478954  0.65232579     0.06900
N343        N  0.68003471  0.12326490  0.61658760    -0.27400
N344        N  0.66672298  0.13773859  0.60826792    -0.35300
C345        C  0.66844320  0.15625024  0.61949266     0.00900
C346        C  0.68363903  0.15333932  0.63561351     0.06900
C347        C  0.69047940  0.13212243  0.63341107    -0.06200
H348        H  0.65909943  0.17070234  0.61631673     0.07600
H349        H  0.70173755  0.12342511  0.64349272     0.08800
Cu350      Cu  0.64585852  0.13147072  0.58298970     0.44200
Cu351      Cu  0.68318701  0.09199777  0.60521328     0.42000
Cu352      Cu  0.65042812  0.07880077  0.55869916     0.43900
N353        N  0.62440017  0.11976859  0.56026253    -0.34800
N354        N  0.62614100  0.10046764  0.55124981    -0.29100
C355        C  0.60896662  0.09705437  0.53845535    -0.05200
C356        C  0.59587171  0.11518163  0.53930096     0.07000
C357        C  0.60607539  0.12917441  0.55346240     0.00800
H358        H  0.60588333  0.08219536  0.52972776     0.08500
H359        H  0.60020460  0.14458006  0.55928460     0.07600
N360        N  0.67126322  0.05729281  0.57347610    -0.36300
N361        N  0.68297314  0.06189747  0.59069166    -0.28500
C362        C  0.69274745  0.04374598  0.59761068    -0.03700
C363        C  0.68711408  0.02694785  0.58391339     0.04900
C364        C  0.67327342  0.03614171  0.56897768     0.03000
H365        H  0.70241941  0.04264719  0.61211294     0.08100
H366        H  0.66404301  0.02785073  0.55668799     0.06900
O367        O  0.47781515  0.84216641  0.50939125    -0.73100
O368        O  0.50849453  0.84017533  0.45294960    -0.74100
O369        O  0.46536748  0.84448300  0.46585008    -0.62700
O370        O  0.52140493  0.83814045  0.49656251    -0.71100
O371        O  0.51739203  0.80242002  0.49761811    -0.70700
O372        O  0.46191623  0.80891674  0.46385316    -0.61900
O373        O  0.50627120  0.80430462  0.45271932    -0.74400
O374        O  0.47271249  0.80667071  0.50828770    -0.73200
Cu375      Cu  0.49345960  0.84240489  0.48125088     1.04600
Cu376      Cu  0.48951682  0.80424451  0.48061456     1.04300
C377        C  0.46982282  0.82493314  0.51752124     0.93100
C378        C  0.51200275  0.82203041  0.44376393     0.92200
C379        C  0.45477315  0.82792146  0.45968470     0.84400
C380        C  0.52814668  0.81948368  0.50223570     0.90700
N381        N  0.29448124  0.83464269  0.33071573    -0.27400
N382        N  0.30752176  0.81958915  0.33843630    -0.35300
C383        C  0.30424515  0.80109640  0.32746477     0.00900
C384        C  0.28822249  0.80474361  0.31234500     0.06900
C385        C  0.28256237  0.82621880  0.31470730    -0.06200
H386        H  0.31265564  0.78604540  0.33047701     0.07600
H387        H  0.27076828  0.83518811  0.30547023     0.08800
Cu388      Cu  0.32879462  0.82495000  0.36368385     0.44200
Cu389      Cu  0.29298420  0.86587213  0.34209778     0.42000
Cu390      Cu  0.32387486  0.87770141  0.38957039     0.43900
N391        N  0.34779398  0.83503661  0.38930882    -0.34800
N392        N  0.34570840  0.85404845  0.39888255    -0.29100
C393        C  0.36107552  0.85601341  0.41403430    -0.05200
C394        C  0.37342941  0.83732730  0.41414382     0.07000
C395        C  0.36461521  0.82445404  0.39808411     0.00800
H396        H  0.36360382  0.87037706  0.42371384     0.08500
H397        H  0.37051731  0.80903422  0.39235548     0.07600
N398        N  0.30487075  0.90038638  0.37385895    -0.36300
N399        N  0.29379843  0.89600344  0.35616712    -0.28500
C400        C  0.28429619  0.91416823  0.34897964    -0.03700
C401        C  0.28970015  0.93081471  0.36283390     0.04900
C402        C  0.30264774  0.92152845  0.37848935     0.03000
H403        H  0.27450653  0.91517607  0.33456167     0.08100
H404        H  0.31055622  0.92971134  0.39175538     0.06900
N405        N  0.64010242  0.83064584  0.28192347    -0.27400
N406        N  0.62921785  0.81521359  0.29196061    -0.35300
C407        C  0.63729663  0.79587870  0.28631439     0.00900
C408        C  0.65397796  0.79923774  0.27198464     0.06900
C409        C  0.65553563  0.82144599  0.26971829    -0.06200
H410        H  0.63172283  0.78054000  0.29262003     0.07600
H411        H  0.66692937  0.83025156  0.25984124     0.08800
Cu412      Cu  0.60465830  0.82016006  0.31393241     0.44200
Cu413      Cu  0.63352386  0.86344331  0.28497108     0.42000
Cu414      Cu  0.59349659  0.87521591  0.32561801     0.43900
N415        N  0.58399197  0.82940706  0.33836498    -0.34800
N416        N  0.58020919  0.84995650  0.34278652    -0.29100
C417        C  0.56666813  0.85119969  0.35959077    -0.05200
C418        C  0.56173492  0.83039898  0.36622303     0.07000
C419        C  0.57292215  0.81691568  0.35228434     0.00800
H420        H  0.56095916  0.86618503  0.36660975     0.08500
H421        H  0.57304322  0.79942652  0.35209350     0.07600
N422        N  0.60607309  0.89805006  0.30489381    -0.36300
N423        N  0.62079449  0.89408224  0.29000071    -0.28500
C424        C  0.62523761  0.91262612  0.27944575    -0.03700
C425        C  0.61234197  0.92882555  0.28793626     0.04900
C426        C  0.60069681  0.91905161  0.30422262     0.03000
H427        H  0.63684177  0.91416626  0.26650935     0.08100
H428        H  0.58934368  0.92666494  0.31507792     0.06900
N429        N  0.32652955  0.82918017  0.66636403    -0.27400
N430        N  0.33698342  0.81426611  0.65514836    -0.35300
C431        C  0.32857816  0.79471119  0.65966575     0.00900
C432        C  0.31219422  0.79735139  0.67462745     0.06900
C433        C  0.31124505  0.81944333  0.67830011    -0.06200
H434        H  0.33394110  0.77980448  0.65230491     0.07600
H435        H  0.30038343  0.82782631  0.68910768     0.08800
Cu436      Cu  0.36235456  0.82054292  0.63416513     0.44200
Cu437      Cu  0.33330509  0.86217663  0.66565688     0.42000
Cu438      Cu  0.38232302  0.87491605  0.63814536     0.43900
N439        N  0.38753259  0.83214315  0.61535376    -0.34800
N440        N  0.39498919  0.85206999  0.61739003    -0.29100
C441        C  0.41075288  0.85529691  0.60294283    -0.05200
C442        C  0.41315903  0.83663902  0.59084166     0.07000
C443        C  0.39837204  0.82213972  0.59935945     0.00800
H444        H  0.41948908  0.87032782  0.60124722     0.08500
H445        H  0.39527677  0.80579116  0.59389965     0.07600
N446        N  0.36404720  0.89777599  0.65417667    -0.36300
N447        N  0.34556623  0.89347415  0.66386249    -0.28500
C448        C  0.33735308  0.91204899  0.67182792    -0.03700
C449        C  0.35148177  0.92873217  0.66688541     0.04900
C450        C  0.36821423  0.91903382  0.65580570     0.03000
H451        H  0.32240793  0.91322686  0.68073102     0.08100
H452        H  0.38223201  0.92694862  0.64904534     0.06900
N453        N  0.67454018  0.84503554  0.64422876    -0.27400
N454        N  0.66238634  0.82883948  0.63738213    -0.35300
C455        C  0.66513478  0.81184962  0.65061813     0.00900
C456        C  0.67948562  0.81768121  0.66672373     0.06900
C457        C  0.68534330  0.83875405  0.66198792    -0.06200
H458        H  0.65788327  0.79613110  0.64809508     0.07600
H459        H  0.69697131  0.84862875  0.67052126     0.08800
Cu460      Cu  0.64353695  0.82967564  0.60968141     0.44200
Cu461      Cu  0.67698232  0.87442389  0.62852818     0.42000
Cu462      Cu  0.64652186  0.87914456  0.57905257     0.43900
N463        N  0.62615591  0.83483808  0.58149821    -0.34800
N464        N  0.62737648  0.85303845  0.57036237    -0.29100
C465        C  0.61392206  0.85184974  0.55341292    -0.05200
C466        C  0.60391925  0.83178866  0.55359183     0.07000
C467        C  0.61186819  0.82154133  0.57185329     0.00800
H468        H  0.61128941  0.86486494  0.54202670     0.08500
H469        H  0.60743766  0.80569193  0.57781365     0.07600
N470        N  0.66540946  0.90378449  0.59166872    -0.36300
N471        N  0.67647805  0.90207624  0.60981728    -0.28500
C472        C  0.68640819  0.92098160  0.61392167    -0.03700
C473        C  0.68118925  0.93538152  0.59762036     0.04900
C474        C  0.66800086  0.92384723  0.58372104     0.03000
H475        H  0.69652837  0.92389234  0.62781891     0.08100
H476        H  0.66033839  0.92981699  0.56919639     0.06900
C477        C  0.71246830  0.70038532  0.21726316     0.80100
N478        N  0.72978909  0.69376799  0.22886357    -0.78200
C479        C  0.73664930  0.70521602  0.24621639     0.82500
N480        N  0.72598341  0.72355868  0.25197268    -0.78200
C481        C  0.70859296  0.73042149  0.24047015     0.82600
N482        N  0.70184771  0.71857033  0.22327191    -0.79900
O483        O  0.14764776  0.45166496  0.44784910    -0.73100
O484        O  0.15145290  0.49271850  0.49856263    -0.74100
O485        O  0.14920470  0.44682099  0.49366839    -0.62700
O486        O  0.15028879  0.49723576  0.45276114    -0.71100
O487        O  0.11468854  0.49967314  0.45505427    -0.70700
O488        O  0.11344122  0.44783119  0.49375680    -0.61900
O489        O  0.11575005  0.49315361  0.50018288    -0.74400
O490        O  0.11196455  0.45481452  0.44865064    -0.73200
Cu491      Cu  0.15095154  0.47203204  0.47321756     1.04600
Cu492      Cu  0.11276389  0.47391774  0.47450948     1.04300
C493        C  0.12906123  0.44738566  0.43996747     0.93100
C494        C  0.13402169  0.49937972  0.50737917     0.92200
C495        C  0.13111239  0.43914932  0.49987993     0.84400
C496        C  0.13259411  0.50637684  0.44740628     0.90700
N497        N  0.10446102  0.30394917  0.29267157    -0.27400
N498        N  0.12027767  0.31485189  0.30201163    -0.35300
C499        C  0.13919454  0.30594165  0.29656339     0.00900
C500        C  0.13527915  0.28867961  0.28300092     0.06900
C501        C  0.11304866  0.28776341  0.28085185    -0.06200
H502        H  0.15473575  0.31155481  0.30221529     0.07600
H503        H  0.10377669  0.27598333  0.27186417     0.08800
Cu504      Cu  0.11650520  0.34103424  0.32231373     0.44200
Cu505      Cu  0.07210613  0.31149088  0.29728124     0.42000
Cu506      Cu  0.06368879  0.36112869  0.32893639     0.43900
N507        N  0.10958239  0.36635462  0.34284819    -0.34800
N508        N  0.08990273  0.37417966  0.34503357    -0.29100
C509        C  0.09018937  0.39003309  0.35989828    -0.05200
C510        C  0.11105241  0.39205590  0.36759837     0.07000
C511        C  0.12297065  0.37687596  0.35632378     0.00800
H512        H  0.07611563  0.39882559  0.36534369     0.08500
H513        H  0.14000194  0.37348636  0.35793167     0.07600
N514        N  0.03924401  0.34222207  0.31612068    -0.36300
N515        N  0.04199871  0.32406279  0.30512119    -0.28500
C516        C  0.02251173  0.31591763  0.29990967    -0.03700
C517        C  0.00684129  0.32965554  0.30804807     0.04900
C518        C  0.01806445  0.34615466  0.31807545     0.03000
H519        H  0.02004690  0.30136248  0.29053389     0.08100
H520        H  0.01128769  0.35998910  0.32637292     0.06900
N521        N  0.12621925  0.64584288  0.29300854    -0.27400
N522        N  0.14142753  0.63542078  0.30382677    -0.35300
C523        C  0.16073480  0.64351214  0.29835887     0.00900
C524        C  0.15768908  0.65970481  0.28328165     0.06900
C525        C  0.13556895  0.66088284  0.28037369    -0.06200
H526        H  0.17592068  0.63821340  0.30516466     0.07600
H527        H  0.12677754  0.67224141  0.27043858     0.08800
Cu528      Cu  0.13631407  0.61145589  0.32659628     0.44200
Cu529      Cu  0.09335043  0.64020260  0.29652935     0.42000
Cu530      Cu  0.08152724  0.59768376  0.33465008     0.43900
N531        N  0.12667060  0.58943113  0.34979803    -0.34800
N532        N  0.10618431  0.58436836  0.35254077    -0.29100
C533        C  0.10441007  0.57055591  0.36913118    -0.05200
C534        C  0.12480414  0.56656022  0.37720875     0.07000
C535        C  0.13860118  0.57888743  0.36461959     0.00800
H536        H  0.08931716  0.56414617  0.37511544     0.08500
H537        H  0.15584799  0.58065620  0.36643809     0.07600
N538        N  0.05826469  0.61607882  0.31957601    -0.36300
N539        N  0.06220777  0.63173350  0.30558138    -0.28500
C540        C  0.04338705  0.64120225  0.30009562    -0.03700
C541        C  0.02699597  0.63090271  0.31126903     0.04900
C542        C  0.03703676  0.61521146  0.32349930     0.03000
H543        H  0.04187826  0.65506675  0.28953604     0.08100
H544        H  0.02951699  0.60437151  0.33496215     0.06900
N545        N  0.12648769  0.29785292  0.65320307    -0.27400
N546        N  0.14164754  0.30775088  0.64185732    -0.35300
C547        C  0.16105716  0.30206655  0.64966111     0.00900
C548        C  0.15806491  0.28807649  0.66681228     0.06900
C549        C  0.13593626  0.28563897  0.66851643    -0.06200
H550        H  0.17629363  0.30757682  0.64317744     0.07600
H551        H  0.12727014  0.27531114  0.67960144     0.08800
Cu552      Cu  0.13622587  0.32809489  0.61570764     0.44200
Cu553      Cu  0.09359105  0.30043480  0.64724865     0.42000
Cu554      Cu  0.08106268  0.33496984  0.60216613     0.43900
N555        N  0.12615827  0.34785895  0.59053406    -0.34800
N556        N  0.10556435  0.35026808  0.58576077    -0.29100
C557        C  0.10360816  0.36408961  0.56919578    -0.05200
C558        C  0.12397261  0.37094152  0.56314460     0.07000
C559        C  0.13796370  0.36012374  0.57699080     0.00800
H560        H  0.08837344  0.36908313  0.56227287     0.08500
H561        H  0.15534904  0.36089608  0.57729971     0.07600
N562        N  0.05808448  0.31916321  0.62022378    -0.36300
N563        N  0.06230106  0.30652869  0.63690568    -0.28500
C564        C  0.04355051  0.29897028  0.64491766    -0.03700
C565        C  0.02685488  0.30737194  0.63258720     0.04900
C566        C  0.03672396  0.31997337  0.61708140     0.03000
H567        H  0.04228527  0.28798703  0.65843795     0.08100
H568        H  0.02890951  0.32920199  0.60445570     0.06900
N569        N  0.13478556  0.64432379  0.65719440    -0.27400
N570        N  0.14972324  0.63276888  0.64715388    -0.35300
C571        C  0.16929040  0.63918479  0.65412881     0.00900
C572        C  0.16647529  0.65547318  0.66923915     0.06900
C573        C  0.14445077  0.65840629  0.67061542    -0.06200
H574        H  0.18441912  0.63280804  0.64822327     0.07600
H575        H  0.13603539  0.67002408  0.68060752     0.08800
Cu576      Cu  0.14326301  0.60933220  0.62370814     0.44200
Cu577      Cu  0.10177566  0.64163898  0.65239441     0.42000
Cu578      Cu  0.08706096  0.60635431  0.60956731     0.43900
N579        N  0.13113907  0.58781262  0.60071744    -0.34800
N580        N  0.11042984  0.58710845  0.59571426    -0.29100
C581        C  0.10715189  0.57175362  0.58076058    -0.05200
C582        C  0.12666136  0.56194906  0.57622645     0.07000
C583        C  0.14164050  0.57276524  0.58893008     0.00800
H584        H  0.09160033  0.56787374  0.57383378     0.08500
H585        H  0.15879759  0.56969859  0.58977230     0.07600
N586        N  0.06490868  0.62457826  0.62645353    -0.36300
N587        N  0.07003888  0.63740385  0.64272095    -0.28500
C588        C  0.05192097  0.64661450  0.65047200    -0.03700
C589        C  0.03467606  0.63915366  0.63833589     0.04900
C590        C  0.04353541  0.62534229  0.62323317     0.03000
H591        H  0.05142833  0.65810403  0.66363796     0.08100
H592        H  0.03502107  0.61634699  0.61089621     0.06900
O593        O  0.80503042  0.50894251  0.46629507    -0.73100
O594        O  0.80539060  0.46033360  0.51005434    -0.74100
O595        O  0.80838389  0.50644895  0.51215064    -0.62700
O596        O  0.80152697  0.46307110  0.46418153    -0.71100
O597        O  0.83712196  0.46208035  0.46043046    -0.70700
O598        O  0.84389173  0.50299925  0.51016086    -0.61900
O599        O  0.84079324  0.45755184  0.50571041    -0.74400
O600        O  0.84075298  0.50715815  0.46505773    -0.73200
Cu601      Cu  0.80377708  0.48474815  0.48832226     1.04600
Cu602      Cu  0.84182609  0.48231231  0.48528821     1.04300
C603        C  0.82307559  0.51573579  0.45893332     0.93100
C604        C  0.82333841  0.45108684  0.51442082     0.92200
C605        C  0.82723796  0.51155518  0.51877946     0.84400
C606        C  0.81829790  0.45625019  0.45435874     0.90700
N607        N  0.81512707  0.30901544  0.30888142    -0.27400
N608        N  0.80001852  0.32052817  0.31870118    -0.35300
C609        C  0.78054617  0.31324873  0.31248875     0.00900
C610        C  0.78346033  0.29618994  0.29829850     0.06900
C611        C  0.80558236  0.29412356  0.29624739    -0.06200
H612        H  0.76545901  0.32048374  0.31738848     0.07600
H613        H  0.81413633  0.28290256  0.28592779     0.08800
Cu614      Cu  0.80555768  0.34653594  0.33929999     0.44200
Cu615      Cu  0.84813500  0.31450039  0.31119117     0.42000
Cu616      Cu  0.86061970  0.36212469  0.34126359     0.43900
N617        N  0.81639465  0.37213539  0.35817911    -0.34800
N618        N  0.83692113  0.37778623  0.35842170    -0.29100
C619        C  0.83967777  0.39440837  0.37203885    -0.05200
C620        C  0.81989178  0.39976561  0.38076174     0.07000
C621        C  0.80545254  0.38509714  0.37185195     0.00800
H622        H  0.85509614  0.40175613  0.37568651     0.08500
H623        H  0.78836771  0.38386562  0.37515036     0.07600
N624        N  0.88345563  0.34437941  0.32496353    -0.36300
N625        N  0.87930030  0.32654674  0.31396304    -0.28500
C626        C  0.89792310  0.31888667  0.30572054    -0.03700
C627        C  0.91438622  0.33288644  0.31163857     0.04900
C628        C  0.90461911  0.34861838  0.32407346     0.03000
H629        H  0.89935573  0.30436817  0.29605491     0.08100
H630        H  0.91232073  0.36200060  0.33227906     0.06900
N631        N  0.83736479  0.66401519  0.31371336    -0.27400
N632        N  0.82205424  0.65424978  0.32496384    -0.35300
C633        C  0.80275552  0.66064250  0.31752415     0.00900
C634        C  0.80595011  0.67525053  0.30094734     0.06900
C635        C  0.82810196  0.67691177  0.29884484    -0.06200
H636        H  0.78745929  0.65453042  0.32329779     0.07600
H637        H  0.83689758  0.68593188  0.28676647     0.08800
Cu638      Cu  0.82689996  0.63108844  0.34868251     0.44200
Cu639      Cu  0.87013510  0.65814638  0.31733522     0.42000
Cu640      Cu  0.88102922  0.61287412  0.35216782     0.43900
N641        N  0.83620471  0.60636578  0.36926365    -0.34800
N642        N  0.85635657  0.59952369  0.37006789    -0.29100
C643        C  0.85796549  0.58362120  0.38470690    -0.05200
C644        C  0.83790385  0.58047671  0.39389076     0.07000
C645        C  0.82436031  0.59497307  0.38351926     0.00800
H646        H  0.87276092  0.57516592  0.38848094     0.08500
H647        H  0.80732618  0.59736563  0.38643189     0.07600
N648        N  0.90469482  0.62997255  0.33615030    -0.36300
N649        N  0.90101219  0.64663014  0.32327458    -0.28500
C650        C  0.91998333  0.65384193  0.31546729    -0.03700
C651        C  0.93624713  0.64123725  0.32420538     0.04900
C652        C  0.92596963  0.62621146  0.33706060     0.03000
H653        H  0.92179997  0.66729116  0.30443461     0.08100
H654        H  0.93339292  0.61335661  0.34631516     0.06900
N655        N  0.83663027  0.30351077  0.66046601    -0.27400
N656        N  0.82157030  0.31580650  0.65158845    -0.35300
C657        C  0.80221930  0.30983596  0.65916509     0.00900
C658        C  0.80510560  0.29287739  0.67337209     0.06900
C659        C  0.82715259  0.28933989  0.67395102    -0.06200
H660        H  0.78706233  0.31701388  0.65428070     0.07600
H661        H  0.83575279  0.27739136  0.68335004     0.08800
Cu662      Cu  0.82685211  0.33978006  0.62900730     0.44200
Cu663      Cu  0.86927030  0.30585252  0.65344377     0.42000
Cu664      Cu  0.88104345  0.34616874  0.61262221     0.43900
N665        N  0.83590557  0.36195590  0.60584009    -0.34800
N666        N  0.85617946  0.36425865  0.59982781    -0.29100
C667        C  0.85726726  0.37918649  0.58414757    -0.05200
C668        C  0.83665863  0.38679006  0.58017235     0.07000
C669        C  0.82344357  0.37539013  0.59413855     0.00800
H670        H  0.87195457  0.38396353  0.57602272     0.08500
H671        H  0.80607612  0.37622872  0.59532916     0.07600
N672        N  0.90378774  0.32576632  0.62591183    -0.36300
N673        N  0.89986435  0.31112466  0.64096686    -0.28500
C674        C  0.91847140  0.30106675  0.64606919    -0.03700
C675        C  0.93465244  0.30963149  0.63328307     0.04900
C676        C  0.92480948  0.32537439  0.62093618     0.03000
H677        H  0.92007711  0.28845204  0.65807571     0.08100
H678        H  0.93240997  0.33607705  0.60940737     0.06900
N679        N  0.84503346  0.65826663  0.66663457    -0.27400
N680        N  0.82903214  0.64834650  0.65647052    -0.35300
C681        C  0.81020221  0.65621709  0.66371612     0.00900
C682        C  0.81438597  0.67166678  0.67928896     0.06900
C683        C  0.83665427  0.67264327  0.68068923    -0.06200
H684        H  0.79454164  0.65143274  0.65765502     0.07600
H685        H  0.84611809  0.68365309  0.69041723     0.08800
Cu686      Cu  0.83219172  0.62563474  0.63190178     0.44200
Cu687      Cu  0.87761625  0.65366523  0.65976058     0.42000
Cu688      Cu  0.88508167  0.62169573  0.61169667     0.43900
N689        N  0.83997102  0.60531387  0.60633947    -0.34800
N690        N  0.85986591  0.60425248  0.59888752    -0.29100
C691        C  0.86082898  0.58947943  0.58306330    -0.05200
C692        C  0.84049553  0.58079310  0.58019132     0.07000
C693        C  0.82759548  0.59115106  0.59532335     0.00800
H694        H  0.87541247  0.58500642  0.57458367     0.08500
H695        H  0.81074876  0.58813853  0.59863904     0.07600
N696        N  0.90991429  0.63658250  0.62800921    -0.36300
N697        N  0.90769080  0.64803062  0.64588639    -0.28500
C698        C  0.92738569  0.65451190  0.65252416    -0.03700
C699        C  0.94252473  0.64701565  0.63782923     0.04900
C700        C  0.93083764  0.63546049  0.62276211     0.03000
H701        H  0.93046432  0.66394724  0.66691353     0.08100
H702        H  0.93705528  0.62629372  0.60926474     0.06900
C703        C  0.23932279  0.24577859  0.22843739     0.80100
N704        N  0.24857945  0.22840693  0.23824098    -0.78200
C705        C  0.23828107  0.21794167  0.25454770     0.82500
N706        N  0.21865175  0.22516217  0.26105364    -0.78200
C707        C  0.20936883  0.24263418  0.25164039     0.82600
N708        N  0.21978926  0.25288371  0.23534104    -0.79900
C709        C  0.82687976  0.44901739  0.41631861    -0.20500
C710        C  0.81616465  0.44242020  0.43507912    -0.07000
C711        C  0.80415459  0.42297708  0.43493735     0.13800
C712        C  0.80450128  0.40981824  0.41639413    -0.20500
C713        C  0.81621709  0.41594361  0.39797849    -0.07000
C714        C  0.82650430  0.43639647  0.39757718     0.13800
C715        C  0.83675844  0.44573306  0.37757539    -0.23900
H716        H  0.83537846  0.46437424  0.41618268     0.15100
H717        H  0.79643430  0.39425260  0.41664003     0.15100
C718        C  0.79186764  0.41558901  0.45455488    -0.23800
H719        H  0.82978049  0.46197119  0.37430307     0.05400
H720        H  0.83385269  0.43581070  0.36296794     0.08600
H721        H  0.85440236  0.44745877  0.38009697     0.08600
H722        H  0.77903389  0.42747746  0.45846806     0.08600
H723        H  0.80297604  0.41406784  0.46851166     0.08600
H724        H  0.78405417  0.39962607  0.45189250     0.05300
C725        C  0.81432743  0.43571765  0.55023609    -0.20500
C726        C  0.82436118  0.43315868  0.53010929    -0.07000
C727        C  0.83675642  0.41437714  0.52602539     0.13800
C728        C  0.83958684  0.39913650  0.54249929    -0.20500
C729        C  0.83051905  0.40219127  0.56298863    -0.07000
C730        C  0.81743369  0.42054662  0.56686645     0.13800
C731        C  0.80785546  0.42496246  0.58876760    -0.23900
H732        H  0.80493289  0.45020003  0.55330149     0.15100
H733        H  0.84938379  0.38490478  0.53951485     0.15100
C734        C  0.84696042  0.41017935  0.50432545    -0.23800
H735        H  0.79936994  0.44079596  0.58924241     0.05400
H736        H  0.82080500  0.42529475  0.60115332     0.08600
H737        H  0.79591505  0.41227416  0.59287311     0.08600
H738        H  0.85961585  0.42239607  0.50095501     0.08600
H739        H  0.83447718  0.41079700  0.49151093     0.08600
H740        H  0.85473936  0.39399077  0.50364101     0.05300
C741        C  0.84043595  0.54924323  0.44646919    -0.20500
C742        C  0.82419509  0.53377232  0.44335213    -0.07000
C743        C  0.81115431  0.53482377  0.42465574     0.13800
C744        C  0.81545781  0.55079061  0.40903181    -0.20500
C745        C  0.83255834  0.56546988  0.41167333    -0.07000
C746        C  0.84467901  0.56518774  0.43101318     0.13800
C747        C  0.86169870  0.58196546  0.43584115    -0.23900
H748        H  0.85013704  0.54861684  0.46103033     0.15100
H749        H  0.80600017  0.55129208  0.39431813     0.15100
C750        C  0.79352346  0.51854223  0.42059877    -0.23800
H751        H  0.86800358  0.58038560  0.45255425     0.05400
H752        H  0.85473000  0.59844042  0.43414729     0.08600
H753        H  0.87560684  0.58013947  0.42480922     0.08600
H754        H  0.78109305  0.51978927  0.43341463     0.08600
H755        H  0.80037743  0.50192373  0.42050485     0.08600
H756        H  0.78545159  0.52131682  0.40482926     0.05300
C757        C  0.81525561  0.54563773  0.53641549    -0.20500
C758        C  0.82977258  0.52813932  0.53593383    -0.07000
C759        C  0.84670887  0.52737447  0.55125590     0.13800
C760        C  0.84917164  0.54449543  0.56592309    -0.20500
C761        C  0.83519630  0.56236283  0.56583900    -0.07000
C762        C  0.81782647  0.56283543  0.55107764     0.13800
C763        C  0.80267994  0.58187251  0.54989816    -0.23900
H764        H  0.80227227  0.54626693  0.52470569     0.15100
H765        H  0.86234394  0.54407793  0.57743572     0.15100
C766        C  0.86205099  0.50846822  0.55260850    -0.23800
H767        H  0.79080718  0.58006526  0.53658381     0.05400
H768        H  0.81196216  0.59697118  0.54702413     0.08600
H769        H  0.79350332  0.58332383  0.56517188     0.08600
H770        H  0.87218121  0.50766757  0.53788828     0.08600
H771        H  0.85282101  0.49317247  0.55446565     0.08600
H772        H  0.87313492  0.50991605  0.56663017     0.05300
C773        C  0.00116701  0.65224044  0.62142723    -0.20500
C774        C  0.01158968  0.64470003  0.64003086    -0.07000
C775        C  0.99939340  0.64033766  0.65877832     0.13800
C776        C  0.97682238  0.64242504  0.65800671    -0.20500
C777        C  0.96629569  0.64858317  0.63889945    -0.07000
C778        C  0.97869346  0.65444497  0.62065184     0.13800
C779        C  0.96845767  0.66342224  0.60045056    -0.23900
H780        H  0.01068009  0.65590010  0.60721039     0.15100
H781        H  0.96728359  0.63814961  0.67202495     0.15100
C782        C  0.00995091  0.63226800  0.67914418    -0.23800
H783        H  0.98078126  0.66893455  0.58866751     0.05400
H784        H  0.95818929  0.67754801  0.60460307     0.08600
H785        H  0.95858119  0.65093458  0.59229663     0.08600
H786        H  0.02125148  0.64468803  0.68542190     0.08600
H787        H  0.01892652  0.61707995  0.67578366     0.08600
H788        H  0.99791437  0.62884229  0.69196237     0.05300
C789        C  0.99195485  0.29928975  0.61541665    -0.20500
C790        C  0.00335094  0.30392404  0.63443093    -0.07000
C791        C  0.99185730  0.30777751  0.65376418     0.13800
C792        C  0.96919605  0.30805578  0.65324695    -0.20500
C793        C  0.95794316  0.30495803  0.63385118    -0.07000
C794        C  0.96939322  0.29971093  0.61487322     0.13800
C795        C  0.95792859  0.29442764  0.59404834    -0.23900
H796        H  0.00082346  0.29601931  0.60069628     0.15100
H797        H  0.96025477  0.31197779  0.66775970     0.15100
C798        C  0.00327206  0.31305481  0.67457532    -0.23800
H799        H  0.96941338  0.28946736  0.58121645     0.05400
H800        H  0.94898721  0.30873177  0.58801956     0.08600
H801        H  0.94649617  0.28085753  0.59671969     0.08600
H802        H  0.01385619  0.32737255  0.67230120     0.08600
H803        H  0.01306427  0.29900119  0.67985423     0.08600
H804        H  0.99170801  0.31683095  0.68773108     0.05300
C805        C  0.99639025  0.64256017  0.33370090    -0.20500
C806        C  0.00414618  0.63715757  0.31315566    -0.07000
C807        C  0.98965387  0.63561105  0.29564633     0.13800
C808        C  0.96746237  0.63840764  0.29939135    -0.20500
C809        C  0.95964232  0.64243309  0.32025816    -0.07000
C810        C  0.97430495  0.64531871  0.33746542     0.13800
C811        C  0.96674121  0.65139910  0.35978132    -0.23900
H812        H  0.00766897  0.64401474  0.34700782     0.15100
H813        H  0.95610095  0.63628326  0.28625329     0.15100
C814        C  0.99742505  0.62977690  0.27337792    -0.23800
H815        H  0.98049154  0.65406154  0.37097430     0.05400
H816        H  0.95660706  0.63834166  0.36667218     0.08600
H817        H  0.95724289  0.66662135  0.35899288     0.08600
H818        H  0.00573343  0.61385361  0.27380382     0.08600
H819        H  0.00880867  0.64231612  0.26750114     0.08600
H820        H  0.98388006  0.62866701  0.26168689     0.05300
C821        C  0.17341275  0.25912162  0.24527446    -0.20500
C822        C  0.18889881  0.25156784  0.26004082    -0.07000
C823        C  0.18534223  0.25441195  0.28243460     0.13800
C824        C  0.16696617  0.26561083  0.28932972    -0.20500
C825        C  0.15194006  0.27386897  0.27457009    -0.07000
C826        C  0.15484071  0.27010599  0.25228482     0.13800
C827        C  0.13906607  0.27858505  0.23583681    -0.23900
H828        H  0.17611269  0.25682096  0.22814217     0.15100
H829        H  0.16460093  0.26855762  0.30642031     0.15100
C830        C  0.20135556  0.24690376  0.29918517    -0.23800
H831        H  0.14430261  0.27488605  0.21909593     0.05400
H832        H  0.13755606  0.29642984  0.23740378     0.08600
H833        H  0.12306959  0.27095738  0.23832425     0.08600
H834        H  0.21741169  0.25416381  0.29594862     0.08600
H835        H  0.20256659  0.22897965  0.29894344     0.08600
H836        H  0.19645697  0.25171249  0.31574811     0.05300
C837        C  0.97237593  0.34726953  0.29907141    -0.20500
C838        C  0.98312832  0.32849298  0.30582423    -0.07000
C839        C  0.97097943  0.31017630  0.31214070     0.13800
C840        C  0.94834637  0.31164539  0.31275750    -0.20500
C841        C  0.93773749  0.33097230  0.30734594    -0.07000
C842        C  0.94985301  0.34870252  0.29953676     0.13800
C843        C  0.93919919  0.36901421  0.29120669    -0.23900
H844        H  0.98174295  0.36111259  0.29379179     0.15100
H845        H  0.93895126  0.29801301  0.31849310     0.15100
C846        C  0.98172053  0.28955451  0.31941105    -0.23800
H847        H  0.95112128  0.38034949  0.28405147     0.05400
H848        H  0.93097519  0.37777347  0.30443331     0.08600
H849        H  0.92732203  0.36477243  0.27846966     0.08600
H850        H  0.99280119  0.29296321  0.33308115     0.08600
H851        H  0.99089988  0.28234362  0.30585071     0.08600
H852        H  0.96975968  0.27734367  0.32487075     0.05300
C853        C  0.13244905  0.41197508  0.42162423    -0.20500
C854        C  0.12694642  0.43392814  0.42050960    -0.07000
C855        C  0.11766455  0.44234769  0.40145828     0.13800
C856        C  0.11332663  0.42836115  0.38416393    -0.20500
C857        C  0.11818126  0.40622709  0.38544424    -0.07000
C858        C  0.12803785  0.39791771  0.40434103     0.13800
C859        C  0.13271904  0.37411709  0.40694978    -0.23900
H860        H  0.13935929  0.40565771  0.43642088     0.15100
H861        H  0.10581563  0.43465712  0.36965478     0.15100
C862        C  0.11246293  0.46610973  0.39932527    -0.23800
H863        H  0.13901405  0.37033865  0.42331175     0.05400
H864        H  0.14508594  0.36894544  0.39512320     0.08600
H865        H  0.11772041  0.36460499  0.40449684     0.08600
H866        H  0.12731471  0.47583247  0.40186002     0.08600
H867        H  0.10019872  0.47087682  0.41145712     0.08600
H868        H  0.10595429  0.47005875  0.38308872     0.05300
C869        C  0.14449528  0.42052114  0.53264867    -0.20500
C870        C  0.13064384  0.42044542  0.51474244    -0.07000
C871        C  0.11633016  0.40290924  0.51175579     0.13800
C872        C  0.11555429  0.38642923  0.52730218    -0.20500
C873        C  0.12855430  0.38701869  0.54589514    -0.07000
C874        C  0.14355094  0.40416112  0.54839098     0.13800
C875        C  0.15780519  0.40613639  0.56799204    -0.23900
H876        H  0.15556021  0.43395023  0.53475667     0.15100
H877        H  0.10429931  0.37317265  0.52515362     0.15100
C878        C  0.10205631  0.40128383  0.49209589    -0.23800
H879        H  0.16698738  0.42157911  0.56801694     0.05400
H880        H  0.16979489  0.39284077  0.56814351     0.08600
H881        H  0.14789724  0.40571312  0.58290231     0.08600
H882        H  0.11204516  0.40205830  0.47724389     0.08600
H883        H  0.09013431  0.41467125  0.49199865     0.08600
H884        H  0.09290315  0.38582727  0.49178252     0.05300
C885        C  0.11681487  0.55584720  0.41470365    -0.20500
C886        C  0.12974038  0.55313701  0.39632602    -0.07000
C887        C  0.14531586  0.53644051  0.39594373     0.13800
C888        C  0.14664517  0.52210796  0.41348501    -0.20500
C889        C  0.13267839  0.52395551  0.43123030    -0.07000
C890        C  0.11813214  0.54155989  0.43222071     0.13800
C891        C  0.10413817  0.54558508  0.45171379    -0.23900
H892        H  0.10519164  0.56895884  0.41510475     0.15100
H893        H  0.15791416  0.50870202  0.41282823     0.15100
C894        C  0.15964384  0.53280098  0.37665594    -0.23800
H895        H  0.09513378  0.56107439  0.45033474     0.05400
H896        H  0.11433841  0.54646964  0.46643257     0.08600
H897        H  0.09206008  0.53247517  0.45350411     0.08600
H898        H  0.17053576  0.54685424  0.37445816     0.08600
H899        H  0.14966425  0.53051742  0.36194337     0.08600
H900        H  0.16991748  0.51820259  0.37865981     0.05300
C901        C  0.11820001  0.51184059  0.54176202    -0.20500
C902        C  0.13441999  0.51426152  0.52617649    -0.07000
C903        C  0.14943687  0.53140032  0.52836586     0.13800
C904        C  0.14716875  0.54614885  0.54556172    -0.20500
C905        C  0.13034322  0.54415262  0.56059514    -0.07000
C906        C  0.11624932  0.52616924  0.55915102     0.13800
C907        C  0.09933375  0.52107218  0.57588262    -0.23900
H908        H  0.10696200  0.49843840  0.54049353     0.15100
H909        H  0.15802931  0.55984998  0.54673825     0.15100
C910        C  0.16711710  0.53496059  0.51208670    -0.23800
H911        H  0.10138822  0.50411023  0.58147591     0.05400
H912        H  0.08303019  0.52282173  0.56866610     0.08600
H913        H  0.10047419  0.53140646  0.59043055     0.08600
H914        H  0.16004239  0.53695037  0.49573181     0.08600
H915        H  0.17833242  0.52095833  0.51215486     0.08600
H916        H  0.17669888  0.54969733  0.51578846     0.05300
C917        C  0.77418820  0.66849383  0.27807604    -0.20500
C918        C  0.78913942  0.68343667  0.28615746    -0.07000
C919        C  0.78708484  0.70555697  0.28073665     0.13800
C920        C  0.76980077  0.71218957  0.26761866    -0.20500
C921        C  0.75486544  0.69718127  0.25942709    -0.07000
C922        C  0.75721518  0.67496031  0.26465050     0.13800
C923        C  0.74165113  0.65792259  0.25679993    -0.23900
H924        H  0.77588906  0.65152844  0.28224972     0.15100
H925        H  0.76798080  0.72918711  0.26364519     0.15100
C926        C  0.80252350  0.72229462  0.28933756    -0.23800
H927        H  0.74504972  0.64181510  0.26401736     0.05400
H928        H  0.74311295  0.65611142  0.23906051     0.08600
H929        H  0.72489427  0.66245949  0.26120353     0.08600
H930        H  0.81894696  0.71926313  0.28297359     0.08600
H931        H  0.80282209  0.72167461  0.30724407     0.08600
H932        H  0.79778358  0.73892622  0.28442709     0.05300
C933        C  0.69025650  0.78361984  0.26618405    -0.20500
C934        C  0.66799473  0.78253989  0.26244937    -0.07000
C935        C  0.65941509  0.76523113  0.25034457     0.13800
C936        C  0.67321693  0.74882703  0.24314158    -0.20500
C937        C  0.69544145  0.74915943  0.24775222    -0.07000
C938        C  0.70414362  0.76709273  0.25912056     0.13800
C939        C  0.72794449  0.76926173  0.26360958    -0.23900
H940        H  0.69670847  0.79717999  0.27523750     0.15100
H941        H  0.66640645  0.73536994  0.23421605     0.15100
C942        C  0.63582418  0.76425280  0.24445885    -0.23800
H943        H  0.73188347  0.78510927  0.27112270     0.05400
H944        H  0.73714716  0.76802410  0.24829295     0.08600
H945        H  0.73327580  0.75647576  0.27499496     0.08600
H946        H  0.63112410  0.77927303  0.23580188     0.08600
H947        H  0.62582709  0.76246543  0.25916315     0.08600
H948        H  0.63219771  0.75028461  0.23375782     0.05300
C949        C  0.41968509  0.81308338  0.44682835    -0.20500
C950        C  0.43401202  0.83072602  0.44787743    -0.07000
C951        C  0.42801823  0.85050900  0.43778748     0.13800
C952        C  0.40826238  0.85183796  0.42687915    -0.20500
C953        C  0.39408601  0.83420975  0.42578575    -0.07000
C954        C  0.39976741  0.81459918  0.43608493     0.13800
C955        C  0.38461926  0.79553048  0.43670321    -0.23900
H956        H  0.42392227  0.79803027  0.45475296     0.15100
H957        H  0.40387363  0.86685430  0.41895392     0.15100
C958        C  0.44216806  0.87039430  0.43803229    -0.23800
H959        H  0.39092623  0.78231267  0.44709877     0.05400
H960        H  0.38247915  0.78873450  0.42030682     0.08600
H961        H  0.36876451  0.80062704  0.44329178     0.08600
H962        H  0.45813395  0.86656817  0.43095801     0.08600
H963        H  0.44409495  0.87639082  0.45480907     0.08600
H964        H  0.43513423  0.88386223  0.42845281     0.05300
C965        C  0.44262975  0.84534448  0.53782613    -0.20500
C966        C  0.45581337  0.82689460  0.53678524    -0.07000
C967        C  0.45433906  0.81115762  0.55340949     0.13800
C968        C  0.43986367  0.81458165  0.57055304    -0.20500
C969        C  0.42731609  0.83345973  0.57186213    -0.07000
C970        C  0.42835546  0.84880203  0.55494964     0.13800
C971        C  0.41373149  0.86831839  0.55405679    -0.23900
H972        H  0.44321785  0.85710356  0.52484290     0.15100
H973        H  0.43886918  0.80269605  0.58339692     0.15100
C974        C  0.46815240  0.79107742  0.55435759    -0.23800
H975        H  0.41494153  0.87686976  0.53833216     0.05400
H976        H  0.41822698  0.88016351  0.56667912     0.08600
H977        H  0.39668728  0.86323423  0.55615190     0.08600
H978        H  0.48069389  0.79037077  0.54174445     0.08600
H979        H  0.45775706  0.77650810  0.55293727     0.08600
H980        H  0.47671255  0.79050341  0.57010037     0.05300
C981        C  0.54109759  0.80867190  0.41981788    -0.20500
C982        C  0.52288171  0.82180425  0.42264542    -0.07000
C983        C  0.51603891  0.83545858  0.40568292     0.13800
C984        C  0.52846409  0.83677661  0.38689430    -0.20500
C985        C  0.54756118  0.82483619  0.38458888    -0.07000
C986        C  0.55367403  0.81009628  0.40100340     0.13800
C987        C  0.57399209  0.79681788  0.39948989    -0.23900
H988        H  0.54608447  0.79805060  0.43282855     0.15100
H989        H  0.52358765  0.84775213  0.37413285     0.15100
C990        C  0.49559485  0.84859071  0.40722989    -0.23800
H991        H  0.57695390  0.78741059  0.41448089     0.05400
H992        H  0.58809563  0.80756524  0.39684690     0.08600
H993        H  0.57262035  0.78504101  0.38606460     0.08600
H994        H  0.49710810  0.86094746  0.42012683     0.08600
H995        H  0.48176639  0.83774305  0.41079870     0.08600
H996        H  0.49203238  0.85725818  0.39192900     0.05300
C997        C  0.56816704  0.81432411  0.54812653    -0.20500
C998        C  0.58632429  0.82448405  0.53904939    -0.07000
C999        C  0.58617496  0.82956897  0.51674922     0.13800
C1000       C  0.56708743  0.82697636  0.50490990    -0.20500
C1001       C  0.54854629  0.81820619  0.51436983    -0.07000
C1002       C  0.54927084  0.81104114  0.53597946     0.13800
C1003       C  0.52972075  0.80125601  0.54659267    -0.23900
H1004       H  0.56827833  0.81010494  0.56510155     0.15100
H1005       H  0.56661332  0.83200998  0.48814091     0.15100
C1006       C  0.60584524  0.83735411  0.50475673    -0.23800
H1007       H  0.53289266  0.79694678  0.56370627     0.05400
H1008       H  0.52495122  0.78627374  0.53791631     0.08600
H1009       H  0.51614173  0.81297538  0.54619226     0.08600
H1010       H  0.62075955  0.83654365  0.51456280     0.08600
H1011       H  0.60329942  0.85425654  0.49921243     0.08600
H1012       H  0.60856814  0.82687327  0.49044573     0.05300
C1013       C  0.68504713  0.99572607  0.60876505    -0.20500
C1014       C  0.68962691  0.00353264  0.58801404    -0.07000
C1015       C  0.69446718  0.98873238  0.57132996     0.13800
C1016       C  0.69267369  0.96646497  0.57536004    -0.20500
C1017       C  0.68656761  0.95864000  0.59572109    -0.07000
C1018       C  0.68342110  0.97345457  0.61288179     0.13800
C1019       C  0.67700177  0.96618478  0.63519156    -0.23900
H1020       H  0.68156443  0.00714641  0.62158517     0.15100
H1021       H  0.69552998  0.95505842  0.56236826     0.15100
C1022       C  0.70188737  0.99625713  0.54941220    -0.23800
H1023       H  0.67358956  0.98013010  0.64598839     0.05400
H1024       H  0.69032478  0.95686676  0.64266429     0.08600
H1025       H  0.66220238  0.95610301  0.63436720     0.08600
H1026       H  0.71621192  0.00689098  0.55122512     0.08600
H1027       H  0.68889455  0.00522243  0.54102599     0.08600
H1028       H  0.70650089  0.98242300  0.53892741     0.05300
C1029       C  0.33344682  0.98759528  0.66727703    -0.20500
C1030       C  0.35177172  0.99756881  0.67610247    -0.07000
C1031       C  0.36875198  0.98462126  0.68411867     0.13800
C1032       C  0.36759274  0.96204972  0.68190343    -0.20500
C1033       C  0.34985492  0.95208984  0.67194632    -0.07000
C1034       C  0.33233853  0.96496395  0.66492516     0.13800
C1035       C  0.31317165  0.95511502  0.65365582    -0.23900
H1036       H  0.32050876  0.99763198  0.66106959     0.15100
H1037       H  0.38091119  0.95210832  0.68742853     0.15100
C1038       C  0.38808488  0.99455353  0.69505876    -0.23800
H1039       H  0.30150500  0.96766232  0.64829104     0.05400
H1040       H  0.30458708  0.94401774  0.66478317     0.08600
H1041       H  0.31858452  0.94600858  0.63918494     0.08600
H1042       H  0.38271406  0.00448698  0.70899334     0.08600
H1043       H  0.39709381  0.00491970  0.68357898     0.08600
H1044       H  0.39937248  0.98200046  0.70117287     0.05300
C1045       C  0.63202899  0.96342938  0.28376152    -0.20500
C1046       C  0.61242700  0.95215279  0.28286304    -0.07000
C1047       C  0.59304217  0.96370251  0.27957025     0.13800
C1048       C  0.59346499  0.98636153  0.27990005    -0.20500
C1049       C  0.61278046  0.99773498  0.28310627    -0.07000
C1050       C  0.63248183  0.98618296  0.28392018     0.13800
C1051       C  0.65383010  0.99753602  0.28640424    -0.23900
H1052       H  0.64690278  0.95442495  0.28577942     0.15100
H1053       H  0.57846206  0.99528621  0.27857257     0.15100
C1054       C  0.57191267  0.95228314  0.27555427    -0.23800
H1055       H  0.66737226  0.98585680  0.28791257     0.05400
H1056       H  0.65370848  0.00781110  0.30110746     0.08600
H1057       H  0.65701631  0.00766410  0.27198385     0.08600
H1058       H  0.56683956  0.94301825  0.28997186     0.08600
H1059       H  0.57361765  0.94110307  0.26162307     0.08600
H1060       H  0.55878810  0.96391809  0.27174481     0.05300
C1061       C  0.27874109  0.17998825  0.28164735    -0.20500
C1062       C  0.26483738  0.16507603  0.29152118    -0.07000
C1063       C  0.24235568  0.16706812  0.28838615     0.13800
C1064       C  0.23442900  0.18404177  0.27560917    -0.20500
C1065       C  0.24826956  0.19925909  0.26594400    -0.07000
C1066       C  0.27085055  0.19702158  0.26888027     0.13800
C1067       C  0.28680931  0.21288817  0.25956578    -0.23900
H1068       H  0.29596788  0.17846085  0.28424637     0.15100
H1069       H  0.21715202  0.18563228  0.27346129     0.15100
C1070       C  0.22649710  0.15221326  0.29936540    -0.23800
H1071       H  0.30360717  0.20913183  0.26455799     0.05400
H1072       H  0.28303414  0.22951289  0.26525057     0.08600
H1073       H  0.28630881  0.21225864  0.24167446     0.08600
H1074       H  0.22930802  0.15227988  0.31706706     0.08600
H1075       H  0.22816501  0.13554086  0.29299380     0.08600
H1076       H  0.20956214  0.15732749  0.29648788     0.05300
C1077       C  0.28953921  0.98847840  0.34195231    -0.20500
C1078       C  0.28091508  0.99942480  0.35977427    -0.07000
C1079       C  0.27304441  0.98751188  0.37755664     0.13800
C1080       C  0.27531462  0.96492930  0.37769248    -0.20500
C1081       C  0.28503747  0.95406821  0.36039673    -0.07000
C1082       C  0.29185680  0.96588805  0.34208313     0.13800
C1083       C  0.30287826  0.95501571  0.32330662    -0.23900
H1084       H  0.29562487  0.99775741  0.32841116     0.15100
H1085       H  0.26992180  0.95571541  0.39156979     0.15100
C1086       C  0.26210716  0.99853425  0.39629116    -0.23800
H1087       H  0.30829274  0.96693057  0.31102679     0.05400
H1088       H  0.29159134  0.94367970  0.31524796     0.08600
H1089       H  0.31728558  0.94602024  0.32905634     0.08600
H1090       H  0.24818537  0.00813911  0.39033054     0.08600
H1091       H  0.27354835  0.00939365  0.40476291     0.08600
H1092       H  0.25598853  0.98663809  0.40825397     0.05300
C1093       C  0.39669794  0.13689498  0.41333929    -0.20500
C1094       C  0.37851260  0.12782592  0.42335732    -0.07000
C1095       C  0.37942568  0.12245781  0.44553194     0.13800
C1096       C  0.39905136  0.12440270  0.45654628    -0.20500
C1097       C  0.41757579  0.13200379  0.44612050    -0.07000
C1098       C  0.41632162  0.13900371  0.42444173     0.13800
C1099       C  0.43546229  0.14770171  0.41221520    -0.23900
H1100       H  0.39593059  0.14132638  0.39642146     0.15100
H1101       H  0.40009690  0.11951973  0.47333357     0.15100
C1102       C  0.35974663  0.11523102  0.45787376    -0.23800
H1103       H  0.43194577  0.16443992  0.40670330     0.05400
H1104       H  0.43853564  0.13739572  0.39785682     0.08600
H1105       H  0.45043584  0.14813153  0.42196096     0.08600
H1106       H  0.35425145  0.09914202  0.45227273     0.08600
H1107       H  0.34658664  0.12723975  0.45576343     0.08600
H1108       H  0.36311519  0.11380556  0.47542984     0.05300
C1109       C  0.42041765  0.11357195  0.53607298    -0.20500
C1110       C  0.43820495  0.12762279  0.53565312    -0.07000
C1111       C  0.44297540  0.14021697  0.55414147     0.13800
C1112       C  0.43048067  0.13752218  0.57292676    -0.20500
C1113       C  0.41347263  0.12255777  0.57357332    -0.07000
C1114       C  0.40790101  0.11100848  0.55470827     0.13800
C1115       C  0.38853728  0.09625072  0.55402367    -0.23900
H1116       H  0.41640249  0.10435361  0.52172270     0.15100
H1117       H  0.43449124  0.14651419  0.58741168     0.15100
C1118       C  0.46177293  0.15564979  0.55452214    -0.23800
H1119       H  0.38588169  0.08947467  0.53762590     0.05400
H1120       H  0.37386324  0.10544533  0.55865756     0.08600
H1121       H  0.39076865  0.08245292  0.56524014     0.08600
H1122       H  0.45925853  0.16866570  0.54243506     0.08600
H1123       H  0.47690881  0.14679535  0.55079956     0.08600
H1124       H  0.46367866  0.16345013  0.57056674     0.05300
C1125       C  0.52819881  0.13468526  0.42191908    -0.20500
C1126       C  0.50870171  0.12326316  0.42300215    -0.07000
C1127       C  0.50239943  0.11010852  0.40540732     0.13800
C1128       C  0.51616633  0.10812464  0.38753600    -0.20500
C1129       C  0.53607938  0.11891782  0.38674263    -0.07000
C1130       C  0.54209337  0.13255845  0.40414490     0.13800
C1131       C  0.56357791  0.14394530  0.40485961    -0.23900
H1132       H  0.53298239  0.14469140  0.43548559     0.15100
H1133       H  0.51148191  0.09780975  0.37417060     0.15100
C1134       C  0.48106039  0.09840280  0.40519283    -0.23800
H1135       H  0.56634480  0.15200523  0.42065042     0.05400
H1136       H  0.56420231  0.15672653  0.39234817     0.08600
H1137       H  0.57682949  0.13211681  0.40236254     0.08600
H1138       H  0.46775464  0.11012282  0.40781532     0.08600
H1139       H  0.48069894  0.08589238  0.41802352     0.08600
H1140       H  0.47814939  0.09011027  0.38954951     0.05300
C1141       C  0.54678462  0.13716208  0.50976178    -0.20500
C1142       C  0.53217854  0.11985554  0.51181329    -0.07000
C1143       C  0.53872840  0.10105297  0.52324105     0.13800
C1144       C  0.55959555  0.10014076  0.53201788    -0.20500
C1145       C  0.57408382  0.11744051  0.52984723    -0.07000
C1146       C  0.56762908  0.13617284  0.51849707     0.13800
C1147       C  0.58289447  0.15476001  0.51458311    -0.23900
H1148       H  0.54205925  0.15147073  0.50080614     0.15100
H1149       H  0.56462578  0.08582538  0.54080887     0.15100
C1150       C  0.52390355  0.08201484  0.52672555    -0.23800
H1151       H  0.57566077  0.16723647  0.50388596     0.05400
H1152       H  0.59782264  0.14874600  0.50671877     0.08600
H1153       H  0.58700011  0.16281841  0.53001412     0.08600
H1154       H  0.52010203  0.07417578  0.51106501     0.08600
H1155       H  0.50882103  0.08749325  0.53468680     0.08600
H1156       H  0.53138387  0.06948730  0.53719477     0.05300
C1157       C  0.42421112  0.42935935  0.85834852    -0.20500
C1158       C  0.42318515  0.44472345  0.84166160    -0.07000
C1159       C  0.40459190  0.44544803  0.82836768     0.13800
C1160       C  0.38739459  0.43119505  0.83257095    -0.20500
C1161       C  0.38826822  0.41638847  0.84972656    -0.07000
C1162       C  0.40714652  0.41509695  0.86244357     0.13800
C1163       C  0.40985044  0.39818933  0.87980237    -0.23900
H1164       H  0.43857702  0.42842190  0.86828371     0.15100
H1165       H  0.37298174  0.43188000  0.82267810     0.15100
C1166       C  0.40236363  0.46159235  0.81027071    -0.23800
H1167       H  0.42635629  0.39840772  0.88678229     0.05400
H1168       H  0.40702588  0.38182773  0.87292557     0.08600
H1169       H  0.39842619  0.40117018  0.89320227     0.08600
H1170       H  0.41477744  0.45845877  0.79776561     0.08600
H1171       H  0.40422915  0.47829007  0.81666040     0.08600
H1172       H  0.38633719  0.46050091  0.80232216     0.05300
C1173       C  0.51660390  0.39333943  0.83760765    -0.20500
C1174       C  0.53696582  0.39332174  0.82775970    -0.07000
C1175       C  0.54420217  0.41222368  0.81698753     0.13800
C1176       C  0.53123565  0.43091940  0.81729149    -0.20500
C1177       C  0.51148030  0.43110206  0.82822334    -0.07000
C1178       C  0.50375400  0.41195176  0.83792589     0.13800
C1179       C  0.48186927  0.41106594  0.84851443    -0.23900
H1180       H  0.51089175  0.37877135  0.84551491     0.15100
H1181       H  0.53690706  0.44569747  0.80975270     0.15100
C1182       C  0.56594712  0.41329152  0.80622890    -0.23800
H1183       H  0.47803246  0.39456722  0.85452075     0.05400
H1184       H  0.46925309  0.41572658  0.83666158     0.08600
H1185       H  0.48130140  0.42227635  0.86249151     0.08600
H1186       H  0.56633486  0.40222617  0.79215892     0.08600
H1187       H  0.57878662  0.40878673  0.81789421     0.08600
H1188       H  0.56953733  0.42982579  0.80016278     0.05300
C1189       C  0.43278167  0.55332614  0.82849938    -0.20500
C1190       C  0.43621312  0.53926307  0.84603238    -0.07000
C1191       C  0.42646410  0.54420081  0.86618884     0.13800
C1192       C  0.41380773  0.56292733  0.86810777    -0.20500
C1193       C  0.41045867  0.57686232  0.85058069    -0.07000
C1194       C  0.42015050  0.57207625  0.83052316     0.13800
C1195       C  0.41813699  0.58711291  0.81147094    -0.23900
H1196       H  0.44034592  0.54986138  0.81312086     0.15100
H1197       H  0.40635210  0.56672872  0.88347218     0.15100
C1198       C  0.42885617  0.52987270  0.88577250    -0.23800
H1199       H  0.42813902  0.58164127  0.79764163     0.05400
H1200       H  0.42357983  0.60361144  0.81606485     0.08600
H1201       H  0.40119308  0.58771648  0.80583808     0.08600
H1202       H  0.44593060  0.52959987  0.89114562     0.08600
H1203       H  0.42331636  0.51321351  0.88192765     0.08600
H1204       H  0.41910033  0.53579152  0.89959783     0.05300
C1205       C  0.54189149  0.52755257  0.81732137    -0.20500
C1206       C  0.52604712  0.52873816  0.83347146    -0.07000
C1207       C  0.52733557  0.54528201  0.84923176     0.13800
C1208       C  0.54512784  0.55920295  0.84930499    -0.20500
C1209       C  0.56160237  0.55729987  0.83395557    -0.07000
C1210       C  0.55975867  0.54163518  0.81740822     0.13800
C1211       C  0.57699559  0.53900860  0.80050754    -0.23900
H1212       H  0.54067486  0.51508367  0.80506585     0.15100
H1213       H  0.54637346  0.57153615  0.86170363     0.15100
C1214       C  0.50981063  0.54874140  0.86578108    -0.23800
H1215       H  0.57345121  0.52527868  0.78947864     0.05400
H1216       H  0.59278978  0.53586554  0.80836090     0.08600
H1217       H  0.57806896  0.55389263  0.79056697     0.08600
H1218       H  0.50907731  0.53482396  0.87705893     0.08600
H1219       H  0.49400949  0.55072639  0.85755676     0.08600
H1220       H  0.51273957  0.56348589  0.87562747     0.05300
C1221       C  0.68782155  0.68052091  0.16458689    -0.20500
C1222       C  0.68792718  0.65808466  0.16805081    -0.07000
C1223       C  0.69654978  0.64965981  0.18739164     0.13800
C1224       C  0.70442576  0.66397899  0.20301256    -0.20500
C1225       C  0.70397320  0.68647623  0.19983220    -0.07000
C1226       C  0.69557286  0.69489874  0.18032095     0.13800
C1227       C  0.69523252  0.71885644  0.17567809    -0.23900
H1228       H  0.68138222  0.68681816  0.14957213     0.15100
H1229       H  0.71070451  0.65751760  0.21799094     0.15100
C1230       C  0.69830369  0.62563228  0.19136912    -0.23800
H1231       H  0.68943455  0.72231959  0.15906508     0.05400
H1232       H  0.71174720  0.72561931  0.17727613     0.08600
H1233       H  0.68419256  0.72721521  0.18703114     0.08600
H1234       H  0.70735681  0.61786613  0.17799004     0.08600
H1235       H  0.68204426  0.61832154  0.19261935     0.08600
H1236       H  0.70695065  0.62203768  0.20666538     0.05300
C1237       C  0.66983448  0.63315222  0.99006482    -0.20500
C1238       C  0.67580730  0.61235727  0.99699100    -0.07000
C1239       C  0.68147564  0.59648324  0.98162229     0.13800
C1240       C  0.67901369  0.60114248  0.95965849    -0.20500
C1241       C  0.67117339  0.62127423  0.95275342    -0.07000
C1242       C  0.66732078  0.63780000  0.96802403     0.13800
C1243       C  0.65911818  0.65974720  0.96130487    -0.23900
H1244       H  0.66572958  0.64534441  0.00196241     0.15100
H1245       H  0.68229265  0.58866045  0.94779341     0.15100
C1246       C  0.69012003  0.57465576  0.98826517    -0.23800
H1247       H  0.65616463  0.67039792  0.97544595     0.05400
H1248       H  0.64370012  0.65800123  0.95234582     0.08600
H1249       H  0.67120457  0.66782975  0.95086588     0.08600
H1250       H  0.67772190  0.56536360  0.99717785     0.08600
H1251       H  0.70454262  0.57684183  0.99867152     0.08600
H1252       H  0.69495976  0.56481367  0.97406379     0.05300
C1253       C  0.58975824  0.27509679  0.97857944    -0.20500
C1254       C  0.60973782  0.28096693  0.98743537    -0.07000
C1255       C  0.62769944  0.28382118  0.97370355     0.13800
C1256       C  0.62470000  0.28258972  0.95125082    -0.20500
C1257       C  0.60416752  0.27891098  0.94245288    -0.07000
C1258       C  0.58674550  0.27399307  0.95622718     0.13800
C1259       C  0.56491915  0.26781506  0.94742481    -0.23900
H1260       H  0.57613226  0.27249493  0.98922614     0.15100
H1261       H  0.63805192  0.28613344  0.94053539     0.15100
C1262       C  0.64956262  0.28977829  0.98248420    -0.23800
H1263       H  0.55349694  0.26347711  0.96053015     0.05400
H1264       H  0.56657894  0.25357125  0.93661599     0.08600
H1265       H  0.55775555  0.28145640  0.93828325     0.08600
H1266       H  0.65564502  0.27658055  0.99299073     0.08600
H1267       H  0.64846025  0.30502409  0.99192006     0.08600
H1268       H  0.66150991  0.29226580  0.96936956     0.05300
C1269       C  0.38191122  0.70001091  0.97492460    -0.20500
C1270       C  0.36126993  0.69772604  0.96581651    -0.07000
C1271       C  0.34306423  0.69712576  0.97962837     0.13800
C1272       C  0.34626611  0.69659983  0.00204185    -0.20500
C1273       C  0.36706257  0.69646704  0.01092154    -0.07000
C1274       C  0.38504515  0.69941504  0.99731870     0.13800
C1275       C  0.40750846  0.70193920  0.00630085    -0.23900
H1276       H  0.39581340  0.70113332  0.96438398     0.15100
H1277       H  0.33248585  0.69476507  0.01263938     0.15100
C1278       C  0.32033295  0.69555653  0.97117021    -0.23800
H1279       H  0.41942965  0.70536457  0.99337397     0.05400
H1280       H  0.41271282  0.68693935  0.01459259     0.08600
H1281       H  0.40785915  0.71564261  0.01789886     0.08600
H1282       H  0.31861992  0.68114824  0.96059635     0.08600
H1283       H  0.31619909  0.71051089  0.96218200     0.08600
H1284       H  0.30839403  0.69394656  0.98442923     0.05300
C1285       C  0.27341813  0.26156829  0.21453386    -0.20500
C1286       C  0.25122186  0.25799104  0.21166246    -0.07000
C1287       C  0.24088194  0.26648581  0.19314476     0.13800
C1288       C  0.25280349  0.27900064  0.17852393    -0.20500
C1289       C  0.27476844  0.28338541  0.18186116    -0.07000
C1290       C  0.28533750  0.27417101  0.19989820     0.13800
C1291       C  0.30923293  0.27683960  0.20345791    -0.23900
H1292       H  0.28141486  0.25482661  0.22856872     0.15100
H1293       H  0.24477493  0.28574363  0.16450627     0.15100
C1294       C  0.21747801  0.26194852  0.18826673    -0.23800
H1295       H  0.31499814  0.26703539  0.21734236     0.05400
H1296       H  0.31311513  0.29396817  0.20702207     0.08600
H1297       H  0.31816627  0.27147852  0.18888136     0.08600
H1298       H  0.20699183  0.26983650  0.20043587     0.08600
H1299       H  0.21458270  0.24420490  0.18824939     0.08600
H1300       H  0.21267231  0.26832436  0.17220446     0.05300
C1301       C  0.29225459  0.32073372  0.00309133    -0.20500
C1302       C  0.28414050  0.33925028  0.01342495    -0.07000
C1303       C  0.27497197  0.35602109  0.00089171     0.13800
C1304       C  0.27638637  0.35497586  0.97833814    -0.20500
C1305       C  0.28620522  0.33735422  0.96803128    -0.07000
C1306       C  0.29341540  0.31958422  0.98045407     0.13800
C1307       C  0.30358478  0.30007907  0.97000885    -0.23900
H1308       H  0.29894500  0.30773269  0.01275528     0.15100
H1309       H  0.27043431  0.36833857  0.96867081     0.15100
C1310       C  0.26343169  0.37488888  0.01115292    -0.23800
H1311       H  0.30895312  0.28801265  0.98217233     0.05400
H1312       H  0.31787024  0.30509340  0.96044538     0.08600
H1313       H  0.29171782  0.29205501  0.95924697     0.08600
H1314       H  0.27476266  0.38493039  0.02066752     0.08600
H1315       H  0.25042062  0.36880139  0.02185287     0.08600
H1316       H  0.25592596  0.38558035  0.99884191     0.05300
C1317       C  0.39916134  0.41060933  0.11774695    -0.20500
C1318       C  0.38219938  0.41773905  0.13086647    -0.07000
C1319       C  0.38496223  0.43626004  0.14390764     0.13800
C1320       C  0.40461019  0.44761279  0.14306301    -0.20500
C1321       C  0.42126859  0.44090583  0.12924743    -0.07000
C1322       C  0.41870288  0.42189062  0.11682422     0.13800
C1323       C  0.43670482  0.41308273  0.10302558    -0.23900
H1324       H  0.39698620  0.39619133  0.10799201     0.15100
H1325       H  0.40670482  0.46217474  0.15261178     0.15100
C1326       C  0.36696202  0.44446281  0.15798757    -0.23800
H1327       H  0.43226793  0.39741920  0.09540750     0.05400
H1328       H  0.45119956  0.41032889  0.11318579     0.08600
H1329       H  0.44064312  0.42460355  0.08988176     0.08600
H1330       H  0.36251852  0.43189585  0.16999025     0.08600
H1331       H  0.35267317  0.44832500  0.14788246     0.08600
H1332       H  0.37169875  0.45934925  0.16687127     0.05300
C1333       C  0.50317865  0.40526035  0.10416658    -0.20500
C1334       C  0.51140367  0.42158453  0.11756450    -0.07000
C1335       C  0.53180590  0.41890548  0.12731523     0.13800
C1336       C  0.54382725  0.40024298  0.12272142    -0.20500
C1337       C  0.53592956  0.38418084  0.10872463    -0.07000
C1338       C  0.51498440  0.38639491  0.09988988     0.13800
C1339       C  0.50452402  0.36876222  0.08668949    -0.23900
H1340       H  0.48740116  0.40734092  0.09692169     0.15100
H1341       H  0.55979999  0.39851056  0.12961927     0.15100
C1342       C  0.54141891  0.43607569  0.14170225    -0.23800
H1343       H  0.48725320  0.37232637  0.08348112     0.05400
H1344       H  0.50534004  0.35314434  0.09552561     0.08600
H1345       H  0.51250951  0.36719548  0.07081217     0.08600
H1346       H  0.53128659  0.43818310  0.15630433     0.08600
H1347       H  0.54244434  0.45167150  0.13283756     0.08600
H1348       H  0.55792013  0.43168074  0.14714686     0.05300
C1349       C  0.41833763  0.53127733  0.12960682    -0.20500
C1350       C  0.44073172  0.53317260  0.12734297    -0.07000
C1351       C  0.45011062  0.55366927  0.12377923     0.13800
C1352       C  0.43668869  0.57175786  0.12166110    -0.20500
C1353       C  0.41421895  0.56987106  0.12334896    -0.07000
C1354       C  0.40488899  0.54945638  0.12769447     0.13800
C1355       C  0.38081206  0.54654271  0.12909796    -0.23900
H1356       H  0.41132500  0.51539121  0.13212642     0.15100
H1357       H  0.44381735  0.58746105  0.11842312     0.15100
C1358       C  0.47411266  0.55697850  0.12182896    -0.23800
H1359       H  0.37633596  0.52929781  0.13152376     0.05400
H1360       H  0.37310507  0.55221292  0.11393529     0.08600
H1361       H  0.37434399  0.55588858  0.14293301     0.08600
H1362       H  0.47792173  0.56369156  0.10565455     0.08600
H1363       H  0.48343221  0.54182646  0.12404807     0.08600
H1364       H  0.47956594  0.56865163  0.13432563     0.05300
C1365       C  0.54820872  0.51076316  0.13206669    -0.20500
C1366       C  0.53204021  0.51319383  0.11631735    -0.07000
C1367       C  0.53567700  0.52744604  0.09874089     0.13800
C1368       C  0.55531562  0.53860060  0.09740030    -0.20500
C1369       C  0.57145112  0.53600919  0.11303816    -0.07000
C1370       C  0.56789922  0.52188782  0.13060623     0.13800
C1371       C  0.58507658  0.51770519  0.14731945    -0.23900
H1372       H  0.54561116  0.49973076  0.14541830     0.15100
H1373       H  0.55810259  0.54954627  0.08401047     0.15100
C1374       C  0.51898169  0.53142854  0.08146713    -0.23800
H1375       H  0.58006870  0.50501800  0.15898933     0.05400
H1376       H  0.58835489  0.53264002  0.15666319     0.08600
H1377       H  0.60010990  0.51214628  0.13932472     0.08600
H1378       H  0.50363198  0.53679478  0.08890916     0.08600
H1379       H  0.51627196  0.51643794  0.07197920     0.08600
H1380       H  0.52414602  0.54420282  0.06995983     0.05300
C1381       C  0.73275316  0.26553858  0.28190756    -0.20500
C1382       C  0.73567609  0.26374792  0.25949795    -0.07000
C1383       C  0.75479092  0.27195115  0.25009722     0.13800
C1384       C  0.77009282  0.28226127  0.26327372    -0.20500
C1385       C  0.76679865  0.28470312  0.28555400    -0.07000
C1386       C  0.74802985  0.27589348  0.29506565     0.13800
C1387       C  0.74434343  0.27650332  0.31910733    -0.23900
H1388       H  0.71825507  0.25898981  0.28917209     0.15100
H1389       H  0.78465394  0.28872750  0.25606582     0.15100
C1390       C  0.75961558  0.26923957  0.22640682    -0.23800
H1391       H  0.72976924  0.26717476  0.32380186     0.05400
H1392       H  0.74187407  0.29337594  0.32460704     0.08600
H1393       H  0.75838980  0.26931734  0.32761787     0.08600
H1394       H  0.74793627  0.27859353  0.21659568     0.08600
H1395       H  0.75875843  0.25184171  0.22196449     0.08600
H1396       H  0.77599528  0.27519976  0.22225749     0.05300
C1397       C  0.67789445  0.24656816  0.18090767    -0.20500
C1398       C  0.68763221  0.26101609  0.19552523    -0.07000
C1399       C  0.68744029  0.28348538  0.19079016     0.13800
C1400       C  0.67692600  0.29076387  0.17205434    -0.20500
C1401       C  0.66675015  0.27629221  0.15789433    -0.07000
C1402       C  0.66735942  0.25388479  0.16227670     0.13800
C1403       C  0.65582194  0.23769359  0.14817673    -0.23900
H1404       H  0.67799040  0.22936719  0.18438166     0.15100
H1405       H  0.67619213  0.30796697  0.16863607     0.15100
C1406       C  0.69722248  0.30007126  0.20572224    -0.23800
H1407       H  0.65681299  0.22103661  0.15486454     0.05400
H1408       H  0.66320896  0.23736240  0.13190055     0.08600
H1409       H  0.63850056  0.24206418  0.14684376     0.08600
H1410       H  0.71488992  0.29756930  0.20683012     0.08600
H1411       H  0.68983768  0.29877523  0.22198867     0.08600
H1412       H  0.69455839  0.31684880  0.19983614     0.05300
C1413       C  0.69224904  0.19076638  0.26307942    -0.20500
C1414       C  0.68020467  0.20721565  0.25308846    -0.07000
C1415       C  0.65742279  0.20555222  0.25241212     0.13800
C1416       C  0.64738844  0.18753482  0.26176619    -0.20500
C1417       C  0.65943980  0.17097230  0.27141073    -0.07000
C1418       C  0.68214769  0.17254282  0.27210449     0.13800
C1419       C  0.69570014  0.15550454  0.28301146    -0.23900
H1420       H  0.70966951  0.19211693  0.26368514     0.15100
H1421       H  0.62994776  0.18628299  0.26148228     0.15100
C1422       C  0.64344150  0.22297355  0.24261356    -0.23800
H1423       H  0.71308088  0.15985348  0.28294393     0.05400
H1424       H  0.69395949  0.13981974  0.27448131     0.08600
H1425       H  0.69053234  0.15362070  0.30006185     0.08600
H1426       H  0.64621477  0.22391387  0.22495329     0.08600
H1427       H  0.64712032  0.23883381  0.25021582     0.08600
H1428       H  0.62601011  0.21963833  0.24504780     0.05300
C1429       C  0.27189441  0.67468280  0.79092518    -0.20500
C1430       C  0.28100272  0.69001471  0.80499803    -0.07000
C1431       C  0.27808465  0.71233724  0.80050657     0.13800
C1432       C  0.26745050  0.71849785  0.78145129    -0.20500
C1433       C  0.25953700  0.70311984  0.76675157    -0.07000
C1434       C  0.26126243  0.68085456  0.77189532     0.13800
C1435       C  0.25318257  0.66337356  0.75694759    -0.23900
H1436       H  0.27379363  0.65760263  0.79447055     0.15100
H1437       H  0.26584328  0.73555863  0.77765073     0.15100
C1438       C  0.28694997  0.72990995  0.81486424    -0.23800
H1439       H  0.25693808  0.64691805  0.76313049     0.05400
H1440       H  0.26091362  0.66503168  0.74087388     0.08600
H1441       H  0.23539940  0.66453408  0.75531702     0.08600
H1442       H  0.30452022  0.72755861  0.81738038     0.08600
H1443       H  0.27830561  0.72986632  0.83050789     0.06400
H1444       H  0.28464781  0.74624647  0.80772603     0.05300
C1445       C  0.29254498  0.74642976  0.70328160    -0.20500
C1446       C  0.27036162  0.75054854  0.70472354    -0.07000
C1447       C  0.26203228  0.77014347  0.69652745     0.13800
C1448       C  0.27606924  0.78489784  0.68651355    -0.20500
C1449       C  0.29824767  0.78058603  0.68458420    -0.07000
C1450       C  0.30663077  0.76114213  0.69335102     0.13800
C1451       C  0.33042215  0.75611605  0.69331654    -0.23900
H1452       H  0.29889019  0.73151127  0.70998866     0.15100
H1453       H  0.26969171  0.79996487  0.68020302     0.15100
C1454       C  0.23861545  0.77596854  0.69915989    -0.23800
H1455       H  0.33413131  0.74136335  0.70288132     0.05400
H1456       H  0.33956479  0.76978787  0.70051455     0.08600
H1457       H  0.33605251  0.75304163  0.67664642     0.08600
H1458       H  0.23425129  0.77578357  0.71653627     0.08600
H1459       H  0.22844559  0.76421166  0.69034911     0.08600
H1460       H  0.23503252  0.79234739  0.69267918     0.05300
C1461       C  0.21402377  0.67190686  0.70437306    -0.20500
C1462       C  0.21359007  0.69457730  0.70232418    -0.07000
C1463       C  0.19760717  0.70422445  0.68913033     0.13800
C1464       C  0.18243457  0.69099760  0.67863311    -0.20500
C1465       C  0.18317410  0.66837223  0.68043981    -0.07000
C1466       C  0.19915511  0.65868758  0.69348873     0.13800
C1467       C  0.20014440  0.63451422  0.69663011    -0.23900
H1468       H  0.22625862  0.66442413  0.71439117     0.15100
H1469       H  0.17003908  0.69834052  0.66868507     0.15100
C1470       C  0.19615196  0.72837157  0.68625847    -0.23800
H1471       H  0.21297320  0.62983052  0.70825198     0.05400
H1472       H  0.20371824  0.62641088  0.68107384     0.08600
H1473       H  0.18449878  0.62855577  0.70299143     0.08600
H1474       H  0.21051008  0.73414036  0.67732005     0.08600
H1475       H  0.19516716  0.73646282  0.70223444     0.08600
H1476       H  0.18170565  0.73311357  0.67675707     0.05300
C1477       C  0.25767528  0.28684922  0.76011878    -0.20500
C1478       C  0.26011097  0.26423706  0.76106925    -0.07000
C1479       C  0.26954980  0.25483136  0.77969393     0.13800
C1480       C  0.27668617  0.26833883  0.79649609    -0.20500
C1481       C  0.27496220  0.29092069  0.79504728    -0.07000
C1482       C  0.26498037  0.30029722  0.77681073     0.13800
C1483       C  0.26125184  0.32437279  0.77514988    -0.23900
H1484       H  0.25025651  0.29414567  0.74604065     0.15100
H1485       H  0.28408942  0.26126290  0.81069894     0.15100
C1486       C  0.27172946  0.23066339  0.78234074    -0.23800
H1487       H  0.25182085  0.32865081  0.76050781     0.05400
H1488       H  0.27683625  0.33307149  0.77415247     0.08600
H1489       H  0.25211001  0.33011360  0.78945158     0.08600
H1490       H  0.28324423  0.22412841  0.77029424     0.08600
H1491       H  0.25574258  0.22281800  0.78032547     0.08600
H1492       H  0.27797339  0.22628294  0.79857204     0.05300
C1493       C  0.19310787  0.26597796  0.71218173    -0.20500
C1494       C  0.20998113  0.25627774  0.70049901    -0.07000
C1495       C  0.20942667  0.25691049  0.67766507     0.13800
C1496       C  0.19202211  0.26706115  0.66726216    -0.20500
C1497       C  0.17520383  0.27669358  0.67897631    -0.07000
C1498       C  0.17580131  0.27624933  0.70176466     0.13800
C1499       C  0.15897509  0.28754933  0.71523069    -0.23900
H1500       H  0.19362867  0.26580464  0.72967167     0.15100
H1501       H  0.19162035  0.26767007  0.64977875     0.15100
C1502       C  0.22752675  0.24801092  0.66409461    -0.23800
H1503       H  0.16292315  0.28690168  0.73271097     0.05400
H1504       H  0.14307640  0.27967222  0.71305302     0.08600
H1505       H  0.15790540  0.30485138  0.71047797     0.08600
H1506       H  0.22860234  0.23023924  0.66613680     0.08600
H1507       H  0.24301575  0.25565401  0.66888061     0.08600
H1508       H  0.22496850  0.25123642  0.64664142     0.05300
C1509       C  0.27348618  0.16784838  0.69300426    -0.20500
C1510       C  0.29560376  0.16793464  0.69763661    -0.07000
C1511       C  0.30435579  0.18482169  0.71018910     0.13800
C1512       C  0.29101725  0.20190079  0.71678828    -0.20500
C1513       C  0.26899660  0.20261535  0.71126045    -0.07000
C1514       C  0.26000680  0.18494778  0.69964634     0.13800
C1515       C  0.23627644  0.18355895  0.69459065    -0.23900
H1516       H  0.26685585  0.15460404  0.68362315     0.15100
H1517       H  0.29804801  0.21501858  0.72603719     0.15100
C1518       C  0.32769299  0.18464574  0.71704434    -0.23800
H1519       H  0.23199746  0.16783755  0.68700071     0.05400
H1520       H  0.23164749  0.19645552  0.68308715     0.08600
H1521       H  0.22675216  0.18514047  0.70967530     0.08600
H1522       H  0.33834687  0.18554356  0.70271101     0.08600
H1523       H  0.33119095  0.16954298  0.72612044     0.08600
H1524       H  0.33162589  0.19859207  0.72766439     0.05300
C1525       C  0.68116791  0.27541725  0.74405155    -0.20500
C1526       C  0.68306751  0.25287592  0.74195859    -0.07000
C1527       C  0.67065542  0.23924025  0.75546853     0.13800
C1528       C  0.65637550  0.24858790  0.77033716    -0.20500
C1529       C  0.65417048  0.27112503  0.77207843    -0.07000
C1530       C  0.66696532  0.28475263  0.75895155     0.13800
C1531       C  0.66660223  0.30907045  0.76112102    -0.23900
H1532       H  0.69074386  0.28586302  0.73378697     0.15100
H1533       H  0.64684887  0.23821769  0.78073970     0.15100
C1534       C  0.67298265  0.21493706  0.75506943    -0.23800
H1535       H  0.67930149  0.31684646  0.75114209     0.05400
H1536       H  0.66948229  0.31375847  0.77818385     0.08600
H1537       H  0.65092223  0.31557085  0.75554217     0.08600
H1538       H  0.69013150  0.21042441  0.75761039     0.08600
H1539       H  0.66726206  0.20837233  0.73944356     0.08600
H1540       H  0.66330524  0.20709033  0.76795954     0.05300
C1541       C  0.76725861  0.24797495  0.69087883    -0.20500
C1542       C  0.75029550  0.25997043  0.70001484    -0.07000
C1543       C  0.75242406  0.28274970  0.70188889     0.13800
C1544       C  0.77108734  0.29279394  0.69394677    -0.20500
C1545       C  0.78764982  0.28081549  0.68421232    -0.07000
C1546       C  0.78582590  0.25806145  0.68283791     0.13800
C1547       C  0.80262175  0.24438043  0.67173444    -0.23900
H1548       H  0.76572759  0.23054584  0.68946316     0.15100
H1549       H  0.77254149  0.31027080  0.69479010     0.15100
C1550       C  0.73482399  0.29682866  0.71110887    -0.23800
H1551       H  0.79765768  0.22712838  0.67071913     0.05400
H1552       H  0.81796902  0.24493822  0.68088249     0.08600
H1553       H  0.80523396  0.25031705  0.65502478     0.08600
H1554       H  0.73231277  0.29287221  0.72839262     0.08600
H1555       H  0.71962427  0.29435006  0.70194863     0.08600
H1556       H  0.73895362  0.31430443  0.71017297     0.05300
C1557       C  0.71562563  0.18935733  0.67381860    -0.20500
C1558       C  0.69914285  0.20220962  0.68263164    -0.07000
C1559       C  0.67751856  0.19843332  0.67626708     0.13800
C1560       C  0.67310683  0.18196988  0.66133480    -0.20500
C1561       C  0.68960724  0.16926863  0.65241641    -0.07000
C1562       C  0.71120931  0.17303014  0.65873305     0.13800
C1563       C  0.72985910  0.16087356  0.64889867    -0.23900
H1564       H  0.73220159  0.19232112  0.67855182     0.15100
H1565       H  0.65657845  0.17912787  0.65637593     0.15100
C1566       C  0.65904943  0.21222425  0.68413971    -0.23800
H1567       H  0.74562607  0.16764740  0.65409430     0.05400
H1568       H  0.72910257  0.16190793  0.63102319     0.08600
H1569       H  0.72955855  0.14372871  0.65409103     0.08600
H1570       H  0.66227775  0.22953214  0.68052532     0.08600
H1571       H  0.65679762  0.20997817  0.70173736     0.08600
H1572       H  0.64359404  0.20780254  0.67620695     0.05300
C1573       C  0.24930326  0.76896166  0.28142581    -0.20500
C1574       C  0.26352854  0.75686781  0.26853360    -0.07000
C1575       C  0.28600655  0.76105960  0.26988361     0.13800
C1576       C  0.29345738  0.77697550  0.28421989    -0.20500
C1577       C  0.27917190  0.78891016  0.29703956    -0.07000
C1578       C  0.25680044  0.78486905  0.29568001     0.13800
C1579       C  0.24080590  0.79638987  0.30996594    -0.23900
H1580       H  0.23213487  0.76577382  0.28055302     0.15100
H1581       H  0.31061343  0.78012018  0.28551976     0.15100
C1582       C  0.30243476  0.74845135  0.25706326    -0.23800
H1583       H  0.22422384  0.78990878  0.30789160     0.05400
H1584       H  0.24026078  0.81384868  0.30592029     0.08600
H1585       H  0.24540430  0.79430513  0.32716534     0.08600
H1586       H  0.30021033  0.75153185  0.23955683     0.08600
H1587       H  0.30079628  0.73088329  0.26049766     0.08600
H1588       H  0.31920079  0.75324701  0.26120147     0.05300
C1589       C  0.28003980  0.72244786  0.19456486    -0.20500
C1590       C  0.26845698  0.70719479  0.20672801    -0.07000
C1591       C  0.27053829  0.68492354  0.20167728     0.13800
C1592       C  0.28428569  0.67865241  0.18483916    -0.20500
C1593       C  0.29619931  0.69387722  0.17297888    -0.07000
C1594       C  0.29393298  0.71616397  0.17786023     0.13800
C1595       C  0.30682511  0.73346304  0.16654815    -0.23900
H1596       H  0.27852247  0.73949807  0.19844877     0.15100
H1597       H  0.28601023  0.66159207  0.18111343     0.15100
C1598       C  0.25932521  0.66749447  0.21450482    -0.23800
H1599       H  0.30482462  0.74952890  0.17436184     0.05400
H1600       H  0.30122622  0.73524231  0.14967142     0.08600
H1601       H  0.32425823  0.72938394  0.16697107     0.08600
H1602       H  0.24159125  0.66899192  0.21261962     0.08600
H1603       H  0.26379832  0.66884105  0.23181267     0.08600
H1604       H  0.26390660  0.65101427  0.20897712     0.05300
C1605       C  0.19429103  0.69123163  0.24526419    -0.20500
C1606       C  0.20967675  0.69930787  0.25983344    -0.07000
C1607       C  0.20751674  0.69463733  0.28211735     0.13800
C1608       C  0.19008264  0.68207440  0.28911833    -0.20500
C1609       C  0.17466729  0.67407625  0.27460267    -0.07000
C1610       C  0.17673113  0.67875304  0.25236405     0.13800
C1611       C  0.16114072  0.66987874  0.23593402    -0.23900
H1612       H  0.19606860  0.69466224  0.22819897     0.15100
H1613       H  0.18851809  0.67833531  0.30614226     0.15100
C1614       C  0.22393627  0.70188655  0.29860492    -0.23800
H1615       H  0.16615349  0.67387453  0.21919481     0.05400
H1616       H  0.14492500  0.67696643  0.23844748     0.08600
H1617       H  0.16027263  0.65197695  0.23733087     0.08600
H1618       H  0.22382413  0.71979353  0.30001747     0.08600
H1619       H  0.24024676  0.69620456  0.29385006     0.08600
H1620       H  0.22042969  0.69525622  0.31489212     0.05300
C1621       C  0.78330641  0.69637241  0.67554418    -0.20500
C1622       C  0.79826858  0.68624393  0.68920792    -0.07000
C1623       C  0.79653162  0.68906597  0.71176288     0.13800
C1624       C  0.77953858  0.70159760  0.72006982    -0.20500
C1625       C  0.76438657  0.71150918  0.70639208    -0.07000
C1626       C  0.76641288  0.70898962  0.68378500     0.13800
C1627       C  0.75022255  0.71846037  0.66825431    -0.23900
H1628       H  0.78467289  0.69408987  0.65824780     0.15100
H1629       H  0.77781941  0.70336400  0.73739374     0.15100
C1630       C  0.81181124  0.67804325  0.72715352    -0.23800
H1631       H  0.75367413  0.71371975  0.65131043     0.05400
H1632       H  0.75067550  0.73638792  0.66902790     0.08600
H1633       H  0.73378107  0.71262549  0.67231064     0.08600
H1634       H  0.82842796  0.68416374  0.72466035     0.08600
H1635       H  0.81145803  0.66027182  0.72446135     0.08600
H1636       H  0.80740419  0.68115758  0.74424927     0.05300
C1637       C  0.68774960  0.77269905  0.70741429    -0.20500
C1638       C  0.71029806  0.77020117  0.70667691    -0.07000
C1639       C  0.72273783  0.78592603  0.69556179     0.13800
C1640       C  0.71216666  0.80208672  0.68362818    -0.20500
C1641       C  0.68959989  0.80301205  0.68260103    -0.07000
C1642       C  0.67726865  0.78896790  0.69563152     0.13800
C1643       C  0.65314135  0.79133646  0.69758408    -0.23900
H1644       H  0.67808025  0.76133980  0.71656311     0.15100
H1645       H  0.72159318  0.81344342  0.67420730     0.15100
C1646       C  0.74704940  0.78611416  0.69628612    -0.23800
H1647       H  0.64636854  0.78004154  0.70976990     0.05400
H1648       H  0.64514602  0.78776244  0.68200797     0.08600
H1649       H  0.64912328  0.80809291  0.70269059     0.08600
H1650       H  0.75368975  0.77203723  0.68742237     0.08600
H1651       H  0.75263342  0.78581669  0.71331694     0.08600
H1652       H  0.75377382  0.80089219  0.68860403     0.05300
C1653       C  0.70561778  0.68577734  0.75655790    -0.20500
C1654       C  0.70369395  0.70848301  0.75675968    -0.07000
C1655       C  0.69003453  0.71835759  0.77228487     0.13800
C1656       C  0.67893755  0.70525236  0.78710092    -0.20500
C1657       C  0.68077716  0.68266466  0.78655155    -0.07000
C1658       C  0.69436183  0.67277458  0.77122052     0.13800
C1659       C  0.69770460  0.64859191  0.77077654    -0.23900
H1660       H  0.71595027  0.67803757  0.74475480     0.15100
H1661       H  0.66862524  0.71264557  0.79915494     0.15100
C1662       C  0.68739024  0.74257458  0.77388078    -0.23800
H1663       H  0.70973816  0.64374028  0.75841707     0.05400
H1664       H  0.68233729  0.64029197  0.76687050     0.08600
H1665       H  0.70363192  0.64298162  0.78674200     0.08600
H1666       H  0.67929597  0.74887488  0.75919334     0.08600
H1667       H  0.70339648  0.75038074  0.77587725     0.08600
H1668       H  0.67727295  0.74727311  0.78790838     0.05300
loop_ 
_geom_bond_atom_site_label_1 
_geom_bond_atom_site_label_2 
_geom_bond_distance 
_geom_bond_site_symmetry_2 
_ccdc_geom_bond_type 
C1            N2   1.357       .  A
C1            N6   1.355       .  A
C1         C1625   1.479       .  S
N2            C3   1.359       .  A
C3            N4   1.359       .  A
C3         C1638   1.487       .  S
N4            C5   1.357       .  A
C5            N6   1.358       .  A
C5         C1654   1.486       .  S
C7            N8   1.356       .  A
C7           N12   1.354       .  A
C7         C1574   1.483       .  S
N8            C9   1.355       .  A
C9           N10   1.358       .  A
C9         C1606   1.480       .  S
N10          C11   1.359       .  A
C11          N12   1.357       .  A
C11        C1590   1.482       .  S
C13          N14   1.356       .  A
C13          N18   1.356       .  A
C13        C1558   1.481       .  S
N14          C15   1.356       .  A
C15          N16   1.359       .  A
C15        C1526   1.478       .  S
N16          C17   1.357       .  A
C17          N18   1.356       .  A
C17        C1542   1.483       .  S
C19          N20   1.355       .  A
C19          N24   1.356       .  A
C19        C1478   1.485       .  S
N20          C21   1.356       .  A
C21          N22   1.362       .  A
C21        C1494   1.485       .  S
N22          C23   1.362       .  A
C23          N24   1.360       .  A
C23        C1513   1.492       .  S
C25          N26   1.360       .  A
C25          N30   1.356       .  A
C25        C1446   1.476       .  S
N26          C27   1.362       .  A
C27          N28   1.360       .  A
C27        C1462   1.486       .  S
N28          C29   1.357       .  A
C29          N30   1.356       .  A
C29        C1433   1.485       .  S
C31          N32   1.360       .  A
C31          N36   1.360       .  A
C31        C1382   1.482       .  S
N32          C33   1.357       .  A
C33          N34   1.353       .  A
C33        C1414   1.479       .  S
N34          C35   1.356       .  A
C35          N36   1.359       .  A
C35        C1398   1.486       .  S
O37         Cu45   2.000       .  S
O37          C47   1.276       .  A
O38         Cu45   1.996       .  S
O38          C48   1.276       .  A
O39         Cu45   1.993       .  S
O39          C49   1.275       .  A
O40         Cu45   1.991       .  S
O40          C50   1.276       .  A
O41         Cu46   2.011       .  S
O41          C50   1.278       .  A
O42         Cu46   2.009       .  S
O42          C49   1.277       .  A
O43         Cu46   2.014       .  S
O43          C48   1.278       .  A
O44         Cu46   2.011       .  S
O44          C47   1.279       .  A
Cu45        Cu46   2.375       .  S
C47        C1366   1.485       .  S
C48        C1321   1.473       .  S
C49        C1350   1.463       .  S
C50        C1334   1.472       .  S
N51          C55   1.343       .  A
N51          N52   1.324       .  A
N51         Cu59   2.075       .  S
N52          C53   1.347       .  A
N52         Cu58   2.085       .  S
C53          C54   1.387       .  A
C53          H56   1.080       .  S
C54        C1289   1.483       .  S
C54          C55   1.383       .  A
C55          H57   1.082       .  S
Cu58         N61   2.083       .  S
Cu59         N69   2.074       .  S
Cu60         N62   2.062       .  S
Cu60         N68   2.062       .  S
N61          C65   1.349       .  A
N61          N62   1.321       .  A
N62          C63   1.341       .  A
C63          C64   1.380       .  A
C63          H66   1.082       .  S
C64        C1318   1.473       .  S
C64          C65   1.386       .  A
C65          H67   1.082       .  S
N68          C72   1.341       .  A
N68          N69   1.320       .  A
N69          C70   1.348       .  A
C70          C71   1.387       .  A
C70          H73   1.082       .  S
C71        C1302   1.478       .  S
C71          C72   1.382       .  A
C72          H74   1.081       .  S
N75          C79   1.343       .  A
N75          N76   1.321       .  A
N75         Cu83   2.063       .  S
N76          C77   1.343       .  A
N76         Cu82   2.071       .  S
C77          C78   1.386       .  A
C77          H80   1.082       .  S
C78        C1593   1.483       .  S
C78          C79   1.385       .  A
C79          H81   1.079       .  S
Cu82         N85   2.070       .  S
Cu83         N93   2.062       .  S
Cu84         N86   2.067       .  S
Cu84         N92   2.067       .  S
N85          C89   1.346       .  A
N85          N86   1.322       .  A
N86          C87   1.342       .  A
C87          C88   1.381       .  A
C87          H90   1.082       .  S
C88        C1353   1.473       .  S
C88          C89   1.383       .  A
C89          H91   1.081       .  S
N92          C96   1.342       .  A
N92          N93   1.320       .  A
N93          C94   1.344       .  A
C94          C95   1.384       .  A
C94          H97   1.082       .  S
C95        C1273   1.475       .  S
C95          C96   1.384       .  A
C96          H98   1.081       .  S
N99         C103   1.346       .  A
N99         N100   1.323       .  A
N99        Cu107   2.078       .  S
N100        C101   1.342       .  A
N100       Cu106   2.065       .  S
C101        C102   1.380       .  A
C101        H104   1.082       .  S
C102       C1401   1.475       .  S
C102        C103   1.384       .  A
C103        H105   1.081       .  S
Cu106       N109   2.063       .  S
Cu107       N117   2.077       .  S
Cu108       N110   2.058       .  S
Cu108       N116   2.059       .  S
N109        C113   1.343       .  A
N109        N110   1.319       .  A
N110        C111   1.342       .  A
C111        C112   1.385       .  A
C111        H114   1.080       .  S
C112       C1337   1.479       .  S
C112        C113   1.386       .  A
C113        H115   1.082       .  S
N116        C120   1.339       .  A
N116        N117   1.322       .  A
N117        C118   1.349       .  A
C118        C119   1.386       .  A
C118        H121   1.081       .  S
C119       C1254   1.475   1_554  S
C119        C120   1.379       .  A
C120        H122   1.082       .  S
N123        C127   1.343       .  A
N123        N124   1.322       .  A
N123       Cu131   2.064       .  S
N124        C125   1.342       .  A
N124       Cu130   2.065       .  S
C125        C126   1.381       .  A
C125        H128   1.081       .  S
C126       C1222   1.471       .  S
C126        C127   1.381       .  A
C127        H129   1.082       .  S
Cu130       N133   2.065       .  S
Cu131       N141   2.063       .  S
Cu132       N134   2.066       .  S
Cu132       N140   2.067       .  S
N133        C137   1.344       .  A
N133        N134   1.320       .  A
N134        C135   1.343       .  A
C135        C136   1.384       .  A
C135        H138   1.082       .  S
C136       C1369   1.478       .  S
C136        C137   1.384       .  A
C137        H139   1.081       .  S
N140        C144   1.341       .  A
N140        N141   1.321       .  A
N141        C142   1.345       .  A
C142        C143   1.382       .  A
C142        H145   1.082       .  S
C143       C1238   1.473   1_554  S
C143        C144   1.382       .  A
C144        H146   1.082       .  S
O147       Cu155   1.993       .  S
O147        C157   1.276       .  A
O148       Cu155   1.992       .  S
O148        C158   1.277       .  A
O149       Cu155   1.992       .  S
O149        C159   1.276       .  A
O150       Cu155   1.994       .  S
O150        C160   1.275       .  A
O151       Cu156   2.014       .  S
O151        C160   1.280       .  A
O152       Cu156   2.016       .  S
O152        C159   1.278       .  A
O153       Cu156   2.022       .  S
O153        C158   1.279       .  A
O154       Cu156   2.022       .  S
O154        C157   1.279       .  A
Cu155      Cu156   2.371       .  S
C157       C1206   1.479       .  S
C158       C1158   1.485       .  S
C159       C1177   1.469       .  S
C160       C1190   1.488       .  S
N161        C165   1.346       .  A
N161        N162   1.324       .  A
N161       Cu169   2.080       .  S
N162        C163   1.342       .  A
N162       Cu168   2.069       .  S
C163        C164   1.381       .  A
C163        H166   1.081       .  S
C164       C1481   1.476       .  S
C164        C165   1.384       .  A
C165        H167   1.082       .  S
Cu168       N171   2.068       .  S
Cu169       N179   2.079       .  S
Cu170       N172   2.070       .  S
Cu170       N178   2.070       .  S
N171        C175   1.346       .  A
N171        N172   1.320       .  A
N172        C173   1.343       .  A
C173        C174   1.384       .  A
C173        H176   1.081       .  S
C174       C1161   1.479       .  S
C174        C175   1.384       .  A
C175        H177   1.082       .  S
N178        C182   1.342       .  A
N178        N179   1.323       .  A
N179        C180   1.349       .  A
C180        C181   1.385       .  A
C180        H183   1.082       .  S
C181       C1305   1.476       .  S
C181        C182   1.380       .  A
C182        H184   1.082       .  S
N185        C189   1.345       .  A
N185        N186   1.321       .  A
N185       Cu193   2.073       .  S
N186        C187   1.342       .  A
N186       Cu192   2.073       .  S
C187        C188   1.386       .  A
C187        H190   1.082       .  S
C188       C1430   1.488       .  S
C188        C189   1.388       .  A
C189        H191   1.078       .  S
Cu192       N195   2.072       .  S
Cu193       N203   2.072       .  S
Cu194       N196   2.062       .  S
Cu194       N202   2.063       .  S
N195        C199   1.345       .  A
N195        N196   1.320       .  A
N196        C197   1.343       .  A
C197        C198   1.383       .  A
C197        H200   1.082       .  S
C198       C1193   1.479       .  S
C198        C199   1.386       .  A
C199        H201   1.081       .  S
N202        C206   1.340       .  A
N202        N203   1.321       .  A
N203        C204   1.346       .  A
C204        C205   1.388       .  A
C204        H207   1.079       .  S
C205       C1270   1.483       .  S
C205        C206   1.383       .  A
C206        H208   1.082       .  S
N209        C213   1.343       .  A
N209        N210   1.322       .  A
N209       Cu217   2.068       .  S
N210        C211   1.343       .  A
N210       Cu216   2.066       .  S
C211        C212   1.383       .  A
C211        H214   1.080       .  S
C212       C1529   1.477       .  S
C212        C213   1.382       .  A
C213        H215   1.082       .  S
Cu216       N219   2.065       .  S
Cu217       N227   2.067       .  S
Cu218       N220   2.067       .  S
Cu218       N226   2.067       .  S
N219        C223   1.346       .  A
N219        N220   1.320       .  A
N220        C221   1.342       .  A
C221        C222   1.384       .  A
C221        H224   1.082       .  S
C222       C1174   1.481       .  S
C222        C223   1.386       .  A
C223        H225   1.080       .  S
N226        C230   1.340       .  A
N226        N227   1.321       .  A
N227        C228   1.347       .  A
C228        C229   1.383       .  A
C228        H231   1.082       .  S
C229       C1257   1.472       .  S
C229        C230   1.381       .  A
C230        H232   1.082       .  S
N233        C237   1.344       .  A
N233        N234   1.325       .  A
N233       Cu241   2.070       .  S
N234        C235   1.344       .  A
N234       Cu240   2.077       .  S
C235        C236   1.381       .  A
C235        H238   1.082       .  S
C236       C1657   1.471       .  S
C236        C237   1.379       .  A
C237        H239   1.082       .  S
Cu240       N243   2.076       .  S
Cu241       N251   2.068       .  S
Cu242       N244   2.057       .  S
Cu242       N250   2.057       .  S
N243        C247   1.349       .  A
N243        N244   1.320       .  A
N244        C245   1.340       .  A
C245        C246   1.381       .  A
C245        H248   1.082       .  S
C246       C1209   1.479       .  S
C246        C247   1.388       .  A
C247        H249   1.081       .  S
N250        C254   1.338       .  A
N250        N251   1.321       .  A
N251        C252   1.348       .  A
C252        C253   1.385       .  A
C252        H255   1.081       .  S
C253       C1241   1.472       .  S
C253        C254   1.379       .  A
C254        H256   1.082       .  S
O257       Cu265   1.993       .  S
O257        C267   1.276       .  A
O258       Cu265   2.005       .  S
O258        C268   1.277       .  A
O259       Cu265   1.997       .  S
O259        C269   1.277       .  A
O260       Cu265   1.999       .  S
O260        C270   1.276       .  A
O261       Cu266   2.019       .  S
O261        C270   1.279       .  A
O262       Cu266   2.025       .  S
O262        C269   1.279       .  A
O263       Cu266   2.006       .  S
O263        C268   1.279       .  A
O264       Cu266   2.011       .  S
O264        C267   1.277       .  A
Cu265      Cu266   2.372       .  S
C267       C1097   1.466       .  S
C268       C1142   1.488       .  S
C269       C1110   1.482       .  S
C270       C1126   1.479       .  S
N271        C275   1.346       .  A
N271        N272   1.324       .  A
N271       Cu279   2.078       .  S
N272        C273   1.342       .  A
N272       Cu278   2.072       .  S
C273        C274   1.382       .  A
C273        H276   1.082       .  S
C274       C1062   1.479       .  S
C274        C275   1.385       .  A
C275        H277   1.080       .  S
Cu278       N281   2.070       .  S
Cu279       N289   2.077       .  S
Cu280       N282   2.057       .  S
Cu280       N288   2.056       .  S
N281        C285   1.347       .  A
N281        N282   1.320       .  A
N282        C283   1.340       .  A
C283        C284   1.382       .  A
C283        H286   1.081       .  S
C284       C1094   1.477       .  S
C284        C285   1.386       .  A
C285        H287   1.082       .  S
N288        C292   1.340       .  A
N288        N289   1.321       .  A
N289        C290   1.347       .  A
C290        C291   1.385       .  A
C290        H293   1.082       .  S
C291       C1078   1.472   1_545  S
C291        C292   1.379       .  A
C292        H294   1.082       .  S
N295        C299   1.346       .  A
N295        N296   1.323       .  A
N295       Cu303   2.074       .  S
N296        C297   1.342       .  A
N296       Cu302   2.069       .  S
C297        C298   1.380       .  A
C297        H300   1.082       .  S
C298       C1417   1.475       .  S
C298        C299   1.384       .  A
C299        H301   1.081       .  S
Cu302       N305   2.068       .  S
Cu303       N313   2.073       .  S
Cu304       N306   2.073       .  S
Cu304       N312   2.073       .  S
N305        C309   1.344       .  A
N305        N306   1.320       .  A
N306        C307   1.345       .  A
C307        C308   1.387       .  A
C307        H310   1.082       .  S
C308       C1129   1.485       .  S
C308        C309   1.386       .  A
C309        H311   1.080       .  S
N312        C316   1.341       .  A
N312        N313   1.323       .  A
N313        C314   1.347       .  A
C314        C315   1.385       .  A
C314        H317   1.081       .  S
C315       C1049   1.479   1_545  S
C315        C316   1.382       .  A
C316        H318   1.082       .  S
N319        C323   1.349       .  A
N319        N320   1.325       .  A
N319       Cu327   2.089       .  S
N320        C321   1.343       .  A
N320       Cu326   2.075       .  S
C321        C322   1.379       .  A
C321        H324   1.082       .  S
C322       C1510   1.477       .  S
C322        C323   1.384       .  A
C323        H325   1.082       .  S
Cu326       N329   2.073       .  S
Cu327       N337   2.088       .  S
Cu328       N330   2.068       .  S
Cu328       N336   2.068       .  S
N329        C333   1.348       .  A
N329        N330   1.321       .  A
N330        C331   1.342       .  A
C331        C332   1.382       .  A
C331        H334   1.082       .  S
C332       C1113   1.477       .  S
C332        C333   1.384       .  A
C333        H335   1.082       .  S
N336        C340   1.342       .  A
N336        N337   1.323       .  A
N337        C338   1.349       .  A
C338        C339   1.386       .  A
C338        H341   1.082       .  S
C339       C1030   1.478   1_545  S
C339        C340   1.380       .  A
C340        H342   1.082       .  S
N343        C347   1.343       .  A
N343        N344   1.321       .  A
N343       Cu351   2.065       .  S
N344        C345   1.342       .  A
N344       Cu350   2.067       .  S
C345        C346   1.384       .  A
C345        H348   1.082       .  S
C346       C1561   1.479       .  S
C346        C347   1.384       .  A
C347        H349   1.080       .  S
Cu350       N353   2.067       .  S
Cu351       N361   2.065       .  S
Cu352       N354   2.066       .  S
Cu352       N360   2.066       .  S
N353        C357   1.344       .  A
N353        N354   1.321       .  A
N354        C355   1.344       .  A
C355        C356   1.384       .  A
C355        H358   1.082       .  S
C356       C1145   1.479       .  S
C356        C357   1.384       .  A
C357        H359   1.081       .  S
N360        C364   1.341       .  A
N360        N361   1.321       .  A
N361        C362   1.344       .  A
C362        C363   1.385       .  A
C362        H365   1.082       .  S
C363       C1014   1.477       .  S
C363        C364   1.383       .  A
C364        H366   1.081       .  S
O367       Cu375   1.996       .  S
O367        C377   1.278       .  A
O368       Cu375   1.991       .  S
O368        C378   1.275       .  A
O369       Cu375   1.990       .  S
O369        C379   1.274       .  A
O370       Cu375   1.992       .  S
O370        C380   1.275       .  A
O371       Cu376   2.027       .  S
O371        C380   1.279       .  A
O372       Cu376   2.022       .  S
O372        C379   1.281       .  A
O373       Cu376   2.017       .  S
O373        C378   1.278       .  A
O374       Cu376   2.013       .  S
O374        C377   1.277       .  A
Cu375      Cu376   2.370       .  S
C377        C966   1.482       .  S
C378        C982   1.473       .  S
C379        C950   1.490       .  S
C380       C1001   1.473       .  S
N381        C385   1.341       .  A
N381        N382   1.321       .  A
N381       Cu389   2.056       .  S
N382        C383   1.344       .  A
N382       Cu388   2.072       .  S
C383        C384   1.383       .  A
C383        H386   1.082       .  S
C384       C1577   1.473       .  S
C384        C385   1.380       .  A
C385        H387   1.081       .  S
Cu388       N391   2.072       .  S
Cu389       N399   2.055       .  S
Cu390       N392   2.073       .  S
Cu390       N398   2.073       .  S
N391        C395   1.345       .  A
N391        N392   1.322       .  A
N392        C393   1.343       .  A
C393        C394   1.385       .  A
C393        H396   1.082       .  S
C394        C953   1.482       .  S
C394        C395   1.386       .  A
C395        H397   1.080       .  S
N398        C402   1.344       .  A
N398        N399   1.321       .  A
N399        C400   1.343       .  A
C400        C401   1.380       .  A
C400        H403   1.081       .  S
C401       C1081   1.473       .  S
C401        C402   1.383       .  A
C402        H404   1.082       .  S
N405        C409   1.346       .  A
N405        N406   1.324       .  A
N405       Cu413   2.075       .  S
N406        C407   1.341       .  A
N406       Cu412   2.066       .  S
C407        C408   1.380       .  A
C407        H410   1.082       .  S
C408        C934   1.473       .  S
C408        C409   1.382       .  A
C409        H411   1.082       .  S
Cu412       N415   2.065       .  S
Cu413       N423   2.074       .  S
Cu414       N416   2.061       .  S
Cu414       N422   2.061       .  S
N415        C419   1.346       .  A
N415        N416   1.319       .  A
N416        C417   1.340       .  A
C417        C418   1.383       .  A
C417        H420   1.082       .  S
C418        C985   1.479       .  S
C418        C419   1.386       .  A
C419        H421   1.080       .  S
N422        C426   1.340       .  A
N422        N423   1.321       .  A
N423        C424   1.348       .  A
C424        C425   1.385       .  A
C424        H427   1.082       .  S
C425       C1046   1.475       .  S
C425        C426   1.380       .  A
C426        H428   1.082       .  S
N429        C433   1.345       .  A
N429        N430   1.324       .  A
N429       Cu437   2.081       .  S
N430        C431   1.345       .  A
N430       Cu436   2.078       .  S
C431        C432   1.386       .  A
C431        H434   1.080       .  S
C432       C1449   1.484       .  S
C432        C433   1.384       .  A
C433        H435   1.082       .  S
Cu436       N439   2.077       .  S
Cu437       N447   2.080       .  S
Cu438       N440   2.064       .  S
Cu438       N446   2.065       .  S
N439        C443   1.348       .  A
N439        N440   1.321       .  A
N440        C441   1.341       .  A
C441        C442   1.383       .  A
C441        H444   1.080       .  S
C442        C969   1.481       .  S
C442        C443   1.387       .  A
C443        H445   1.082       .  S
N446        C450   1.342       .  A
N446        N447   1.321       .  A
N447        C448   1.349       .  A
C448        C449   1.387       .  A
C448        H451   1.081       .  S
C449       C1033   1.480       .  S
C449        C450   1.381       .  A
C450        H452   1.082       .  S
N453        C457   1.345       .  A
N453        N454   1.322       .  A
N453       Cu461   2.065       .  S
N454        C455   1.343       .  A
N454       Cu460   2.076       .  S
C455        C456   1.384       .  A
C455        H458   1.081       .  S
C456       C1641   1.477       .  S
C456        C457   1.383       .  A
C457        H459   1.082       .  S
Cu460       N463   2.076       .  S
Cu461       N471   2.065       .  S
Cu462       N464   2.073       .  S
Cu462       N470   2.073       .  S
N463        C467   1.347       .  A
N463        N464   1.321       .  A
N464        C465   1.343       .  A
C465        C466   1.386       .  A
C465        H468   1.082       .  S
C466        C998   1.485       .  S
C466        C467   1.387       .  A
C467        H469   1.082       .  S
N470        C474   1.343       .  A
N470        N471   1.321       .  A
N471        C472   1.344       .  A
C472        C473   1.384       .  A
C472        H475   1.080       .  S
C473       C1017   1.479       .  S
C473        C474   1.384       .  A
C474        H476   1.082       .  S
C477        N478   1.355       .  A
C477        N482   1.354       .  A
C477       C1225   1.477       .  S
N478        C479   1.355       .  A
C479        N480   1.359       .  A
C479        C921   1.480       .  S
N480        C481   1.360       .  A
C481        N482   1.358       .  A
C481        C937   1.486       .  S
O483       Cu491   2.023       .  S
O483        C493   1.279       .  A
O484       Cu491   2.024       .  S
O484        C494   1.279       .  A
O485       Cu491   2.011       .  S
O485        C495   1.278       .  A
O486       Cu491   2.008       .  S
O486        C496   1.278       .  A
O487       Cu492   2.000       .  S
O487        C496   1.277       .  A
O488       Cu492   2.005       .  S
O488        C495   1.277       .  A
O489       Cu492   1.994       .  S
O489        C494   1.277       .  A
O490       Cu492   1.990       .  S
O490        C493   1.275       .  A
Cu491      Cu492   2.372       .  S
C493        C854   1.470       .  S
C494        C902   1.484       .  S
C495        C870   1.478       .  S
C496        C889   1.478       .  S
N497        C501   1.349       .  A
N497        N498   1.323       .  A
N497       Cu505   2.080       .  S
N498        C499   1.339       .  A
N498       Cu504   2.062       .  S
C499        C500   1.379       .  A
C499        H502   1.082       .  S
C500        C825   1.476       .  S
C500        C501   1.386       .  A
C501        H503   1.081       .  S
Cu504       N507   2.061       .  S
Cu505       N515   2.080       .  S
Cu506       N508   2.070       .  S
Cu506       N514   2.071       .  S
N507        C511   1.344       .  A
N507        N508   1.320       .  A
N508        C509   1.344       .  A
C509        C510   1.384       .  A
C509        H512   1.082       .  S
C510        C857   1.477       .  S
C510        C511   1.383       .  A
C511        H513   1.081       .  S
N514        C518   1.341       .  A
N514        N515   1.323       .  A
N515        C516   1.348       .  A
C516        C517   1.385       .  A
C516        H519   1.081       .  S
C517        C838   1.479   1_455  S
C517        C518   1.381       .  A
C518        H520   1.082       .  S
N521        C525   1.346       .  A
N521        N522   1.324       .  A
N521       Cu529   2.079       .  S
N522        C523   1.341       .  A
N522       Cu528   2.070       .  S
C523        C524   1.381       .  A
C523        H526   1.082       .  S
C524       C1609   1.479       .  S
C524        C525   1.385       .  A
C525        H527   1.081       .  S
Cu528       N531   2.068       .  S
Cu529       N539   2.078       .  S
Cu530       N532   2.059       .  S
Cu530       N538   2.059       .  S
N531        C535   1.347       .  A
N531        N532   1.319       .  A
N532        C533   1.341       .  A
C533        C534   1.382       .  A
C533        H536   1.082       .  S
C534        C886   1.478       .  S
C534        C535   1.386       .  A
C535        H537   1.081       .  S
N538        C542   1.340       .  A
N538        N539   1.322       .  A
N539        C540   1.349       .  A
C540        C541   1.385       .  A
C540        H543   1.082       .  S
C541        C806   1.473       .  S
C541        C542   1.379       .  A
C542        H544   1.082       .  S
N545        C549   1.346       .  A
N545        N546   1.324       .  A
N545       Cu553   2.079       .  S
N546        C547   1.343       .  A
N546       Cu552   2.078       .  S
C547        C548   1.382       .  A
C547        H550   1.082       .  S
C548       C1497   1.480       .  S
C548        C549   1.385       .  A
C549        H551   1.081       .  S
Cu552       N555   2.076       .  S
Cu553       N563   2.077       .  S
Cu554       N556   2.059       .  S
Cu554       N562   2.059       .  S
N555        C559   1.347       .  A
N555        N556   1.319       .  A
N556        C557   1.340       .  A
C557        C558   1.384       .  A
C557        H560   1.082       .  S
C558        C873   1.487       .  S
C558        C559   1.391       .  A
C559        H561   1.079       .  S
N562        C566   1.340       .  A
N562        N563   1.321       .  A
N563        C564   1.348       .  A
C564        C565   1.387       .  A
C564        H567   1.081       .  S
C565        C790   1.478       .  S
C565        C566   1.380       .  A
C566        H568   1.082       .  S
N569        C573   1.344       .  A
N569        N570   1.325       .  A
N569       Cu577   2.075       .  S
N570        C571   1.347       .  A
N570       Cu576   2.089       .  S
C571        C572   1.385       .  A
C571        H574   1.081       .  S
C572       C1465   1.479       .  S
C572        C573   1.380       .  A
C573        H575   1.082       .  S
Cu576       N579   2.088       .  S
Cu577       N587   2.073       .  S
Cu578       N580   2.062       .  S
Cu578       N586   2.062       .  S
N579        C583   1.350       .  A
N579        N580   1.322       .  A
N580        C581   1.341       .  A
C581        C582   1.382       .  A
C581        H584   1.082       .  S
C582        C905   1.483       .  S
C582        C583   1.388       .  A
C583        H585   1.082       .  S
N586        C590   1.341       .  A
N586        N587   1.320       .  A
N587        C588   1.348       .  A
C588        C589   1.386       .  A
C588        H591   1.081       .  S
C589        C774   1.476       .  S
C589        C590   1.380       .  A
C590        H592   1.082       .  S
O593       Cu601   2.025       .  S
O593        C603   1.280       .  A
O594       Cu601   2.024       .  S
O594        C604   1.280       .  A
O595       Cu601   2.014       .  S
O595        C605   1.278       .  A
O596       Cu601   2.012       .  S
O596        C606   1.277       .  A
O597       Cu602   2.004       .  S
O597        C606   1.278       .  A
O598       Cu602   2.006       .  S
O598        C605   1.277       .  A
O599       Cu602   1.986       .  S
O599        C604   1.274       .  A
O600       Cu602   1.983       .  S
O600        C603   1.275       .  A
Cu601      Cu602   2.372       .  S
C603        C742   1.476       .  S
C604        C726   1.475       .  S
C605        C758   1.484       .  S
C606        C710   1.474       .  S
N607        C611   1.345       .  A
N607        N608   1.324       .  A
N607       Cu615   2.080       .  S
N608        C609   1.344       .  A
N608       Cu614   2.080       .  S
C609        C610   1.384       .  A
C609        H612   1.080       .  S
C610       C1385   1.481       .  S
C610        C611   1.384       .  A
C611        H613   1.082       .  S
Cu614       N617   2.078       .  S
Cu615       N625   2.078       .  S
Cu616       N618   2.056       .  S
Cu616       N624   2.056       .  S
N617        C621   1.349       .  A
N617        N618   1.320       .  A
N618        C619   1.340       .  A
C619        C620   1.381       .  A
C619        H622   1.082       .  S
C620        C713   1.479       .  S
C620        C621   1.388       .  A
C621        H623   1.082       .  S
N624        C628   1.339       .  A
N624        N625   1.320       .  A
N625        C626   1.349       .  A
C626        C627   1.387       .  A
C626        H629   1.082       .  S
C627        C841   1.477       .  S
C627        C628   1.380       .  A
C628        H630   1.081       .  S
N631        C635   1.346       .  A
N631        N632   1.324       .  A
N631       Cu639   2.076       .  S
N632        C633   1.341       .  A
N632       Cu638   2.073       .  S
C633        C634   1.382       .  A
C633        H636   1.082       .  S
C634        C918   1.477       .  S
C634        C635   1.384       .  A
C635        H637   1.081       .  S
Cu638       N641   2.071       .  S
Cu639       N649   2.075       .  S
Cu640       N642   2.063       .  S
Cu640       N648   2.063       .  S
N641        C645   1.348       .  A
N641        N642   1.320       .  A
N642        C643   1.341       .  A
C643        C644   1.382       .  A
C643        H646   1.081       .  S
C644        C745   1.478       .  S
C644        C645   1.385       .  A
C645        H647   1.082       .  S
N648        C652   1.341       .  A
N648        N649   1.322       .  A
N649        C650   1.348       .  A
C650        C651   1.384       .  A
C650        H653   1.082       .  S
C651        C809   1.473       .  S
C651        C652   1.380       .  A
C652        H654   1.082       .  S
N655        C659   1.346       .  A
N655        N656   1.323       .  A
N655       Cu663   2.076       .  S
N656        C657   1.341       .  A
N656       Cu662   2.064       .  S
C657        C658   1.380       .  A
C657        H660   1.082       .  S
C658       C1545   1.476       .  S
C658        C659   1.385       .  A
C659        H661   1.081       .  S
Cu662       N665   2.062       .  S
Cu663       N673   2.075       .  S
Cu664       N666   2.062       .  S
Cu664       N672   2.062       .  S
N665        C669   1.345       .  A
N665        N666   1.319       .  A
N666        C667   1.341       .  A
C667        C668   1.383       .  A
C667        H670   1.082       .  S
C668        C729   1.477       .  S
C668        C669   1.385       .  A
C669        H671   1.081       .  S
N672        C676   1.340       .  A
N672        N673   1.322       .  A
N673        C674   1.348       .  A
C674        C675   1.384       .  A
C674        H677   1.082       .  S
C675        C793   1.473       .  S
C675        C676   1.379       .  A
C676        H678   1.082       .  S
N679        C683   1.348       .  A
N679        N680   1.325       .  A
N679       Cu687   2.085       .  S
N680        C681   1.342       .  A
N680       Cu686   2.079       .  S
C681        C682   1.381       .  A
C681        H684   1.082       .  S
C682       C1622   1.479       .  S
C682        C683   1.385       .  A
C683        H685   1.081       .  S
Cu686       N689   2.078       .  S
Cu687       N697   2.083       .  S
Cu688       N690   2.057       .  S
Cu688       N696   2.058       .  S
N689        C693   1.349       .  A
N689        N690   1.319       .  A
N690        C691   1.340       .  A
C691        C692   1.382       .  A
C691        H694   1.082       .  S
C692        C761   1.481       .  S
C692        C693   1.389       .  A
C693        H695   1.081       .  S
N696        C700   1.340       .  A
N696        N697   1.321       .  A
N697        C698   1.349       .  A
C698        C699   1.388       .  A
C698        H701   1.082       .  S
C699        C777   1.479       .  S
C699        C700   1.380       .  A
C700        H702   1.081       .  S
C703        N704   1.360       .  A
C703        N708   1.358       .  A
C703       C1286   1.482       .  S
N704        C705   1.359       .  A
C705        N706   1.358       .  A
C705       C1065   1.488       .  S
N706        C707   1.355       .  A
C707        N708   1.356       .  A
C707        C822   1.479       .  S
C709        C710   1.400       .  A
C709        C714   1.399       .  A
C709        H716   1.085       .  S
C710        C711   1.413       .  A
C711        C712   1.407       .  A
C711        C718   1.506       .  S
C712        C713   1.405       .  A
C712        H717   1.084       .  S
C713        C714   1.415       .  A
C714        C715   1.508       .  S
C715        H719   1.111       .  S
C715        H720   1.108       .  S
C715        H721   1.110       .  S
C718        H722   1.110       .  S
C718        H723   1.109       .  S
C718        H724   1.111       .  S
C725        C726   1.403       .  A
C725        C730   1.406       .  A
C725        H732   1.084       .  S
C726        C727   1.414       .  A
C727        C728   1.400       .  A
C727        C734   1.509       .  S
C728        C729   1.402       .  A
C728        H733   1.084       .  S
C729        C730   1.415       .  A
C730        C731   1.507       .  S
C731        H735   1.111       .  S
C731        H736   1.110       .  S
C731        H737   1.108       .  S
C734        H738   1.109       .  S
C734        H739   1.109       .  S
C734        H740   1.111       .  S
C741        C742   1.402       .  A
C741        C746   1.399       .  A
C741        H748   1.085       .  S
C742        C743   1.414       .  A
C743        C744   1.408       .  A
C743        C750   1.506       .  S
C744        C745   1.405       .  A
C744        H749   1.084       .  S
C745        C746   1.414       .  A
C746        C747   1.509       .  S
C747        H751   1.111       .  S
C747        H752   1.110       .  S
C747        H753   1.107       .  S
C750        H754   1.110       .  S
C750        H755   1.111       .  S
C750        H756   1.111       .  S
C757        C758   1.407       .  A
C757        C762   1.406       .  A
C757        H764   1.084       .  S
C758        C759   1.416       .  A
C759        C760   1.402       .  A
C759        C766   1.508       .  S
C760        C761   1.403       .  A
C760        H765   1.084       .  S
C761        C762   1.413       .  A
C762        C763   1.506       .  S
C763        H767   1.111       .  S
C763        H768   1.110       .  S
C763        H769   1.108       .  S
C766        H770   1.109       .  S
C766        H771   1.111       .  S
C766        H772   1.111       .  S
C773        C774   1.401       .  A
C773        C778   1.401   1_455  A
C773        H780   1.084       .  S
C774        C775   1.413   1_455  A
C775        C776   1.406       .  A
C775        C782   1.506   1_655  S
C776        C777   1.404       .  A
C776        H781   1.084       .  S
C777        C778   1.415       .  A
C778        C779   1.509       .  S
C779        H783   1.111       .  S
C779        H784   1.110       .  S
C779        H785   1.107       .  S
C782        H786   1.109       .  S
C782        H787   1.110       .  S
C782        H788   1.111   1_455  S
C789        C790   1.403   1_655  A
C789        C794   1.400       .  A
C789        H796   1.084   1_655  S
C790        C791   1.414   1_455  A
C791        C792   1.406       .  A
C791        C798   1.506   1_655  S
C792        C793   1.402       .  A
C792        H797   1.084       .  S
C793        C794   1.412       .  A
C794        C795   1.508       .  S
C795        H799   1.111       .  S
C795        H800   1.108       .  S
C795        H801   1.110       .  S
C798        H802   1.110       .  S
C798        H803   1.108       .  S
C798        H804   1.111   1_455  S
C805        C806   1.401   1_655  A
C805        C810   1.400       .  A
C805        H812   1.084   1_655  S
C806        C807   1.411   1_455  A
C807        C808   1.406       .  A
C807        C814   1.505       .  S
C808        C809   1.403       .  A
C808        H813   1.084       .  S
C809        C810   1.412       .  A
C810        C811   1.508       .  S
C811        H815   1.111       .  S
C811        H816   1.108       .  S
C811        H817   1.110       .  S
C814        H818   1.110   1_655  S
C814        H819   1.110   1_655  S
C814        H820   1.111       .  S
C821        C822   1.405       .  A
C821        C826   1.406       .  A
C821        H828   1.084       .  S
C822        C823   1.416       .  A
C823        C824   1.400       .  A
C823        C830   1.509       .  S
C824        C825   1.401       .  A
C824        H829   1.084       .  S
C825        C826   1.412       .  A
C826        C827   1.506       .  S
C827        H831   1.111       .  S
C827        H832   1.110       .  S
C827        H833   1.109       .  S
C830        H834   1.110       .  S
C830        H835   1.110       .  S
C830        H836   1.111       .  S
C837        C838   1.401       .  A
C837        C842   1.400       .  A
C837        H844   1.084       .  S
C838        C839   1.415       .  A
C839        C840   1.407       .  A
C839        C846   1.506       .  S
C840        C841   1.403       .  A
C840        H845   1.084       .  S
C841        C842   1.414       .  A
C842        C843   1.509       .  S
C843        H847   1.111       .  S
C843        H848   1.107       .  S
C843        H849   1.110       .  S
C846        H850   1.110       .  S
C846        H851   1.109       .  S
C846        H852   1.111       .  S
C853        C854   1.400       .  A
C853        C858   1.405       .  A
C853        H860   1.084       .  S
C854        C855   1.412       .  A
C855        C856   1.402       .  A
C855        C862   1.508       .  S
C856        C857   1.402       .  A
C856        H861   1.084       .  S
C857        C858   1.417       .  A
C858        C859   1.507       .  S
C859        H863   1.111       .  S
C859        H864   1.108       .  S
C859        H865   1.110       .  S
C862        H866   1.111       .  S
C862        H867   1.109       .  S
C862        H868   1.111       .  S
C869        C870   1.402       .  A
C869        C874   1.406       .  A
C869        H876   1.084       .  S
C870        C871   1.412       .  A
C871        C872   1.402       .  A
C871        C878   1.508       .  S
C872        C873   1.406       .  A
C872        H877   1.084       .  S
C873        C874   1.418       .  A
C874        C875   1.506       .  S
C875        H879   1.111       .  S
C875        H880   1.108       .  S
C875        H881   1.110       .  S
C878        H882   1.111       .  S
C878        H883   1.109       .  S
C878        H884   1.111       .  S
C885        C886   1.403       .  A
C885        C890   1.401       .  A
C885        H892   1.084       .  S
C886        C887   1.413       .  A
C887        C888   1.404       .  A
C887        C894   1.507       .  S
C888        C889   1.405       .  A
C888        H893   1.084       .  S
C889        C890   1.414       .  A
C890        C891   1.508       .  S
C891        H895   1.111       .  S
C891        H896   1.111       .  S
C891        H897   1.109       .  S
C894        H898   1.108       .  S
C894        H899   1.110       .  S
C894        H900   1.111       .  S
C901        C902   1.403       .  A
C901        C906   1.399       .  A
C901        H908   1.085       .  S
C902        C903   1.416       .  A
C903        C904   1.409       .  A
C903        C910   1.507       .  S
C904        C905   1.405       .  A
C904        H909   1.084       .  S
C905        C906   1.416       .  A
C906        C907   1.509       .  S
C907        H911   1.111       .  S
C907        H912   1.110       .  S
C907        H913   1.107       .  S
C910        H914   1.111       .  S
C910        H915   1.110       .  S
C910        H916   1.111       .  S
C917        C918   1.400       .  A
C917        C922   1.399       .  A
C917        H924   1.084       .  S
C918        C919   1.413       .  A
C919        C920   1.406       .  A
C919        C926   1.506       .  S
C920        C921   1.405       .  A
C920        H925   1.084       .  S
C921        C922   1.418       .  A
C922        C923   1.508       .  S
C923        H927   1.111       .  S
C923        H928   1.109       .  S
C923        H929   1.110       .  S
C926        H930   1.108       .  S
C926        H931   1.110       .  S
C926        H932   1.111       .  S
C933        C934   1.401       .  A
C933        C938   1.405       .  A
C933        H940   1.084       .  S
C934        C935   1.410       .  A
C935        C936   1.399       .  A
C935        C942   1.509       .  S
C936        C937   1.407       .  A
C936        H941   1.084       .  S
C937        C938   1.419       .  A
C938        C939   1.508       .  S
C939        H943   1.111       .  S
C939        H944   1.110       .  S
C939        H945   1.109       .  S
C942        H946   1.110       .  S
C942        H947   1.108       .  S
C942        H948   1.111       .  S
C949        C950   1.407       .  A
C949        C954   1.406       .  A
C949        H956   1.084       .  S
C950        C951   1.422       .  A
C951        C952   1.401       .  A
C951        C958   1.510       .  S
C952        C953   1.401       .  A
C952        H957   1.084       .  S
C953        C954   1.413       .  A
C954        C955   1.507       .  S
C955        H959   1.111       .  S
C955        H960   1.107       .  S
C955        H961   1.110       .  S
C958        H962   1.109       .  S
C958        H963   1.110       .  S
C958        H964   1.111       .  S
C965        C966   1.404       .  A
C965        C970   1.399       .  A
C965        H972   1.084       .  S
C966        C967   1.419       .  A
C967        C968   1.407       .  A
C967        C974   1.508       .  S
C968        C969   1.404       .  A
C968        H973   1.085       .  S
C969        C970   1.414       .  A
C970        C971   1.509       .  S
C971        H975   1.111       .  S
C971        H976   1.106       .  S
C971        H977   1.110       .  S
C974        H978   1.104       .  S
C974        H979   1.110       .  S
C974        H980   1.111       .  S
C981        C982   1.402       .  A
C981        C986   1.406       .  A
C981        H988   1.084       .  S
C982        C983   1.413       .  A
C983        C984   1.399       .  A
C983        C990   1.508       .  S
C984        C985   1.402       .  A
C984        H989   1.084       .  S
C985        C986   1.416       .  A
C986        C987   1.506       .  S
C987        H991   1.111       .  S
C987        H992   1.110       .  S
C987        H993   1.108       .  S
C990        H994   1.109       .  S
C990        H995   1.111       .  S
C990        H996   1.111       .  S
C997        C998   1.407       .  A
C997       C1002   1.407       .  A
C997       H1004   1.084       .  S
C998        C999   1.417       .  A
C999       C1000   1.401       .  A
C999       C1006   1.508       .  S
C1000      C1001   1.400       .  A
C1000      H1005   1.085       .  S
C1001      C1002   1.411       .  A
C1002      C1003   1.506       .  S
C1003      H1007   1.111       .  S
C1003      H1008   1.110       .  S
C1003      H1009   1.111       .  S
C1006      H1010   1.107       .  S
C1006      H1011   1.110       .  S
C1006      H1012   1.111       .  S
C1013      C1014   1.403   1_565  A
C1013      C1018   1.403       .  A
C1013      H1020   1.084   1_565  S
C1014      C1015   1.412   1_545  A
C1015      C1016   1.402       .  A
C1015      C1022   1.508       .  S
C1016      C1017   1.403       .  A
C1016      H1021   1.084       .  S
C1017      C1018   1.416       .  A
C1018      C1019   1.507       .  S
C1019      H1023   1.111       .  S
C1019      H1024   1.108       .  S
C1019      H1025   1.110       .  S
C1022      H1026   1.110   1_565  S
C1022      H1027   1.107   1_565  S
C1022      H1028   1.111       .  S
C1029      C1030   1.403       .  A
C1029      C1034   1.407       .  A
C1029      H1036   1.084       .  S
C1030      C1031   1.412       .  A
C1031      C1032   1.403       .  A
C1031      C1038   1.507       .  S
C1032      C1033   1.403       .  A
C1032      H1037   1.084       .  S
C1033      C1034   1.414       .  A
C1034      C1035   1.506       .  S
C1035      H1039   1.111       .  S
C1035      H1040   1.109       .  S
C1035      H1041   1.110       .  S
C1038      H1042   1.110   1_565  S
C1038      H1043   1.109   1_565  S
C1038      H1044   1.111       .  S
C1045      C1046   1.402       .  A
C1045      C1050   1.406       .  A
C1045      H1052   1.084       .  S
C1046      C1047   1.412       .  A
C1047      C1048   1.400       .  A
C1047      C1054   1.509       .  S
C1048      C1049   1.403       .  A
C1048      H1053   1.084       .  S
C1049      C1050   1.416       .  A
C1050      C1051   1.506       .  S
C1051      H1055   1.111       .  S
C1051      H1056   1.110   1_565  S
C1051      H1057   1.109   1_565  S
C1054      H1058   1.107       .  S
C1054      H1059   1.110       .  S
C1054      H1060   1.111       .  S
C1061      C1062   1.403       .  A
C1061      C1066   1.404       .  A
C1061      H1068   1.084       .  S
C1062      C1063   1.413       .  A
C1063      C1064   1.402       .  A
C1063      C1070   1.508       .  S
C1064      C1065   1.407       .  A
C1064      H1069   1.084       .  S
C1065      C1066   1.419       .  A
C1066      C1067   1.508       .  S
C1067      H1071   1.111       .  S
C1067      H1072   1.110       .  S
C1067      H1073   1.110       .  S
C1070      H1074   1.110       .  S
C1070      H1075   1.108       .  S
C1070      H1076   1.111       .  S
C1077      C1078   1.401       .  A
C1077      C1082   1.403       .  A
C1077      H1084   1.084       .  S
C1078      C1079   1.412       .  A
C1079      C1080   1.402       .  A
C1079      C1086   1.507       .  S
C1080      C1081   1.401       .  A
C1080      H1085   1.084       .  S
C1081      C1082   1.414       .  A
C1082      C1083   1.507       .  S
C1083      H1087   1.111       .  S
C1083      H1088   1.108       .  S
C1083      H1089   1.110       .  S
C1086      H1090   1.110   1_565  S
C1086      H1091   1.108   1_565  S
C1086      H1092   1.111       .  S
C1093      C1094   1.404       .  A
C1093      C1098   1.403       .  A
C1093      H1100   1.084       .  S
C1094      C1095   1.414       .  A
C1095      C1096   1.400       .  A
C1095      C1102   1.508       .  S
C1096      C1097   1.400       .  A
C1096      H1101   1.085       .  S
C1097      C1098   1.413       .  A
C1098      C1099   1.508       .  S
C1099      H1103   1.110       .  S
C1099      H1104   1.110       .  S
C1099      H1105   1.107       .  S
C1102      H1106   1.106       .  S
C1102      H1107   1.110       .  S
C1102      H1108   1.111       .  S
C1109      C1110   1.404       .  A
C1109      C1114   1.401       .  A
C1109      H1116   1.084       .  S
C1110      C1111   1.416       .  A
C1111      C1112   1.409       .  A
C1111      C1118   1.506       .  S
C1112      C1113   1.403       .  A
C1112      H1117   1.084       .  S
C1113      C1114   1.412       .  A
C1114      C1115   1.508       .  S
C1115      H1119   1.111       .  S
C1115      H1120   1.110       .  S
C1115      H1121   1.108       .  S
C1118      H1122   1.110       .  S
C1118      H1123   1.111       .  S
C1118      H1124   1.111       .  S
C1125      C1126   1.402       .  A
C1125      C1130   1.405       .  A
C1125      H1132   1.084       .  S
C1126      C1127   1.414       .  A
C1127      C1128   1.404       .  A
C1127      C1134   1.508       .  S
C1128      C1129   1.404       .  A
C1128      H1133   1.084       .  S
C1129      C1130   1.418       .  A
C1130      C1131   1.507       .  S
C1131      H1135   1.111       .  S
C1131      H1136   1.107       .  S
C1131      H1137   1.110       .  S
C1134      H1138   1.110       .  S
C1134      H1139   1.109       .  S
C1134      H1140   1.111       .  S
C1141      C1142   1.407       .  A
C1141      C1146   1.402       .  A
C1141      H1148   1.084       .  S
C1142      C1143   1.419       .  A
C1143      C1144   1.404       .  A
C1143      C1150   1.508       .  S
C1144      C1145   1.403       .  A
C1144      H1149   1.084       .  S
C1145      C1146   1.412       .  A
C1146      C1147   1.508       .  S
C1147      H1151   1.111       .  S
C1147      H1152   1.110       .  S
C1147      H1153   1.107       .  S
C1150      H1154   1.109       .  S
C1150      H1155   1.110       .  S
C1150      H1156   1.111       .  S
C1157      C1158   1.405       .  A
C1157      C1162   1.400       .  A
C1157      H1164   1.084       .  S
C1158      C1159   1.417       .  A
C1159      C1160   1.407       .  A
C1159      C1166   1.507       .  S
C1160      C1161   1.403       .  A
C1160      H1165   1.084       .  S
C1161      C1162   1.413       .  A
C1162      C1163   1.508       .  S
C1163      H1167   1.111       .  S
C1163      H1168   1.110       .  S
C1163      H1169   1.107       .  S
C1166      H1170   1.110       .  S
C1166      H1171   1.111       .  S
C1166      H1172   1.111       .  S
C1173      C1174   1.403       .  A
C1173      C1178   1.399       .  A
C1173      H1180   1.084       .  S
C1174      C1175   1.418       .  A
C1175      C1176   1.407       .  A
C1175      C1182   1.506       .  S
C1176      C1177   1.400       .  A
C1176      H1181   1.084       .  S
C1177      C1178   1.411       .  A
C1178      C1179   1.509       .  S
C1179      H1183   1.111       .  S
C1179      H1184   1.111       .  S
C1179      H1185   1.109       .  S
C1182      H1186   1.108       .  S
C1182      H1187   1.110       .  S
C1182      H1188   1.111       .  S
C1189      C1190   1.407       .  A
C1189      C1194   1.404       .  A
C1189      H1196   1.084       .  S
C1190      C1191   1.421       .  A
C1191      C1192   1.403       .  A
C1191      C1198   1.509       .  S
C1192      C1193   1.401       .  A
C1192      H1197   1.084       .  S
C1193      C1194   1.412       .  A
C1194      C1195   1.507       .  S
C1195      H1199   1.111       .  S
C1195      H1200   1.110       .  S
C1195      H1201   1.107       .  S
C1198      H1202   1.110       .  S
C1198      H1203   1.110       .  S
C1198      H1204   1.111       .  S
C1205      C1206   1.405       .  A
C1205      C1210   1.409       .  A
C1205      H1212   1.084       .  S
C1206      C1207   1.415       .  A
C1207      C1208   1.399       .  A
C1207      C1214   1.510       .  S
C1208      C1209   1.401       .  A
C1208      H1213   1.084       .  S
C1209      C1210   1.414       .  A
C1210      C1211   1.506       .  S
C1211      H1215   1.111       .  S
C1211      H1216   1.110       .  S
C1211      H1217   1.109       .  S
C1214      H1218   1.109       .  S
C1214      H1219   1.111       .  S
C1214      H1220   1.111       .  S
C1221      C1222   1.402       .  A
C1221      C1226   1.403       .  A
C1221      H1228   1.084       .  S
C1222      C1223   1.411       .  A
C1223      C1224   1.399       .  A
C1223      C1230   1.508       .  S
C1224      C1225   1.404       .  A
C1224      H1229   1.082       .  S
C1225      C1226   1.415       .  A
C1226      C1227   1.508       .  S
C1227      H1231   1.111       .  S
C1227      H1232   1.110       .  S
C1227      H1233   1.109       .  S
C1230      H1234   1.110       .  S
C1230      H1235   1.108       .  S
C1230      H1236   1.111       .  S
C1237      C1238   1.404       .  A
C1237      C1242   1.404       .  A
C1237      H1244   1.084   1_556  S
C1238      C1239   1.411       .  A
C1239      C1240   1.399       .  A
C1239      C1246   1.508       .  S
C1240      C1241   1.402       .  A
C1240      H1245   1.084       .  S
C1241      C1242   1.412       .  A
C1242      C1243   1.506       .  S
C1243      H1247   1.111       .  S
C1243      H1248   1.110       .  S
C1243      H1249   1.109       .  S
C1246      H1250   1.107       .  S
C1246      H1251   1.110       .  S
C1246      H1252   1.111       .  S
C1253      C1254   1.402       .  A
C1253      C1258   1.399       .  A
C1253      H1260   1.084       .  S
C1254      C1255   1.413       .  A
C1255      C1256   1.405       .  A
C1255      C1262   1.506       .  S
C1256      C1257   1.403       .  A
C1256      H1261   1.084       .  S
C1257      C1258   1.411       .  A
C1258      C1259   1.508       .  S
C1259      H1263   1.111       .  S
C1259      H1264   1.110       .  S
C1259      H1265   1.108       .  S
C1262      H1266   1.109       .  S
C1262      H1267   1.110       .  S
C1262      H1268   1.111       .  S
C1269      C1270   1.405       .  A
C1269      C1274   1.401       .  A
C1269      H1276   1.084       .  S
C1270      C1271   1.418       .  A
C1271      C1272   1.403   1_556  A
C1271      C1278   1.507       .  S
C1272      C1273   1.402       .  A
C1272      H1277   1.084       .  S
C1273      C1274   1.410   1_554  A
C1274      C1275   1.508   1_556  S
C1275      H1279   1.111   1_554  S
C1275      H1280   1.107       .  S
C1275      H1281   1.110       .  S
C1278      H1282   1.110       .  S
C1278      H1283   1.108       .  S
C1278      H1284   1.111       .  S
C1285      C1286   1.405       .  A
C1285      C1290   1.406       .  A
C1285      H1292   1.084       .  S
C1286      C1287   1.415       .  A
C1287      C1288   1.402       .  A
C1287      C1294   1.508       .  S
C1288      C1289   1.404       .  A
C1288      H1293   1.084       .  S
C1289      C1290   1.415       .  A
C1290      C1291   1.507       .  S
C1291      H1295   1.111       .  S
C1291      H1296   1.107       .  S
C1291      H1297   1.110       .  S
C1294      H1298   1.109       .  S
C1294      H1299   1.110       .  S
C1294      H1300   1.111       .  S
C1301      C1302   1.404       .  A
C1301      C1306   1.406   1_554  A
C1301      H1308   1.084       .  S
C1302      C1303   1.414       .  A
C1303      C1304   1.402   1_554  A
C1303      C1310   1.508       .  S
C1304      C1305   1.401       .  A
C1304      H1309   1.084       .  S
C1305      C1306   1.413       .  A
C1306      C1307   1.506       .  S
C1307      H1311   1.111       .  S
C1307      H1312   1.110       .  S
C1307      H1313   1.109       .  S
C1310      H1314   1.107       .  S
C1310      H1315   1.110       .  S
C1310      H1316   1.111   1_554  S
C1317      C1318   1.401       .  A
C1317      C1322   1.399       .  A
C1317      H1324   1.084       .  S
C1318      C1319   1.411       .  A
C1319      C1320   1.407       .  A
C1319      C1326   1.505       .  S
C1320      C1321   1.405       .  A
C1320      H1325   1.084       .  S
C1321      C1322   1.413       .  A
C1322      C1323   1.508       .  S
C1323      H1327   1.111       .  S
C1323      H1328   1.110       .  S
C1323      H1329   1.109       .  S
C1326      H1330   1.110       .  S
C1326      H1331   1.110       .  S
C1326      H1332   1.111       .  S
C1333      C1334   1.402       .  A
C1333      C1338   1.401       .  A
C1333      H1340   1.084       .  S
C1334      C1335   1.411       .  A
C1335      C1336   1.402       .  A
C1335      C1342   1.508       .  S
C1336      C1337   1.405       .  A
C1336      H1341   1.084       .  S
C1337      C1338   1.416       .  A
C1338      C1339   1.508       .  S
C1339      H1343   1.111       .  S
C1339      H1344   1.110       .  S
C1339      H1345   1.106       .  S
C1342      H1346   1.110       .  S
C1342      H1347   1.111       .  S
C1342      H1348   1.111       .  S
C1349      C1350   1.401       .  A
C1349      C1354   1.403       .  A
C1349      H1356   1.085       .  S
C1350      C1351   1.411       .  A
C1351      C1352   1.399       .  A
C1351      C1358   1.507       .  S
C1352      C1353   1.402       .  A
C1352      H1357   1.085       .  S
C1353      C1354   1.413       .  A
C1354      C1355   1.506       .  S
C1355      H1359   1.111       .  S
C1355      H1360   1.110       .  S
C1355      H1361   1.109       .  S
C1358      H1362   1.110       .  S
C1358      H1363   1.108       .  S
C1358      H1364   1.110       .  S
C1365      C1366   1.406       .  A
C1365      C1370   1.404       .  A
C1365      H1372   1.084       .  S
C1366      C1367   1.419       .  A
C1367      C1368   1.402       .  A
C1367      C1374   1.509       .  S
C1368      C1369   1.401       .  A
C1368      H1373   1.084       .  S
C1369      C1370   1.412       .  A
C1370      C1371   1.507       .  S
C1371      H1375   1.111       .  S
C1371      H1376   1.108       .  S
C1371      H1377   1.110       .  S
C1374      H1378   1.109       .  S
C1374      H1379   1.109       .  S
C1374      H1380   1.111       .  S
C1381      C1382   1.405       .  A
C1381      C1386   1.403       .  A
C1381      H1388   1.084       .  S
C1382      C1383   1.415       .  A
C1383      C1384   1.404       .  A
C1383      C1390   1.508       .  S
C1384      C1385   1.404       .  A
C1384      H1389   1.084       .  S
C1385      C1386   1.414       .  A
C1386      C1387   1.508       .  S
C1387      H1391   1.111       .  S
C1387      H1392   1.107       .  S
C1387      H1393   1.110       .  S
C1390      H1394   1.108       .  S
C1390      H1395   1.110       .  S
C1390      H1396   1.111       .  S
C1397      C1398   1.407       .  A
C1397      C1402   1.401       .  A
C1397      H1404   1.084       .  S
C1398      C1399   1.418       .  A
C1399      C1400   1.405       .  A
C1399      C1406   1.507       .  S
C1400      C1401   1.402       .  A
C1400      H1405   1.084       .  S
C1401      C1402   1.411       .  A
C1402      C1403   1.508       .  S
C1403      H1407   1.111       .  S
C1403      H1408   1.108       .  S
C1403      H1409   1.110       .  S
C1406      H1410   1.108       .  S
C1406      H1411   1.110       .  S
C1406      H1412   1.111       .  S
C1413      C1414   1.404       .  A
C1413      C1418   1.405       .  A
C1413      H1420   1.084       .  S
C1414      C1415   1.417       .  A
C1415      C1416   1.401       .  A
C1415      C1422   1.509       .  S
C1416      C1417   1.400       .  A
C1416      H1421   1.084       .  S
C1417      C1418   1.412       .  A
C1418      C1419   1.506       .  S
C1419      H1423   1.111       .  S
C1419      H1424   1.109       .  S
C1419      H1425   1.110       .  S
C1422      H1426   1.109       .  S
C1422      H1427   1.110       .  S
C1422      H1428   1.111       .  S
C1429      C1430   1.405       .  A
C1429      C1434   1.403       .  A
C1429      H1436   1.084       .  S
C1430      C1431   1.418       .  A
C1431      C1432   1.404       .  A
C1431      C1438   1.507       .  S
C1432      C1433   1.404       .  A
C1432      H1437   1.084       .  S
C1433      C1434   1.416       .  A
C1434      C1435   1.508       .  S
C1435      H1439   1.111       .  S
C1435      H1440   1.110       .  S
C1435      H1441   1.110       .  S
C1438      H1442   1.110       .  S
C1438      H1443   1.108       .  S
C1438      H1444   1.111       .  S
C1445      C1446   1.402       .  A
C1445      C1450   1.403       .  A
C1445      H1452   1.085       .  S
C1446      C1447   1.410       .  A
C1447      C1448   1.405       .  A
C1447      C1454   1.505       .  S
C1448      C1449   1.406       .  A
C1448      H1453   1.084       .  S
C1449      C1450   1.417       .  A
C1450      C1451   1.508       .  S
C1451      H1455   1.111       .  S
C1451      H1456   1.110       .  S
C1451      H1457   1.107       .  S
C1454      H1458   1.110       .  S
C1454      H1459   1.106       .  S
C1454      H1460   1.111       .  S
C1461      C1462   1.406       .  A
C1461      C1466   1.404       .  A
C1461      H1468   1.083       .  S
C1462      C1463   1.416       .  A
C1463      C1464   1.405       .  A
C1463      C1470   1.505       .  S
C1464      C1465   1.403       .  A
C1464      H1469   1.084       .  S
C1465      C1466   1.411       .  A
C1466      C1467   1.507       .  S
C1467      H1471   1.111       .  S
C1467      H1472   1.108       .  S
C1467      H1473   1.110       .  S
C1470      H1474   1.108       .  S
C1470      H1475   1.110       .  S
C1470      H1476   1.111       .  S
C1477      C1478   1.406       .  A
C1477      C1482   1.401       .  A
C1477      H1484   1.084       .  S
C1478      C1479   1.418       .  A
C1479      C1480   1.405       .  A
C1479      C1486   1.508       .  S
C1480      C1481   1.402       .  A
C1480      H1485   1.084       .  S
C1481      C1482   1.412       .  A
C1482      C1483   1.508       .  S
C1483      H1487   1.111       .  S
C1483      H1488   1.108       .  S
C1483      H1489   1.110       .  S
C1486      H1490   1.109       .  S
C1486      H1491   1.110       .  S
C1486      H1492   1.111       .  S
C1493      C1494   1.407       .  A
C1493      C1498   1.403       .  A
C1493      H1500   1.084       .  S
C1494      C1495   1.416       .  A
C1495      C1496   1.404       .  A
C1495      C1502   1.507       .  S
C1496      C1497   1.403       .  A
C1496      H1501   1.084       .  S
C1497      C1498   1.413       .  A
C1498      C1499   1.508       .  S
C1499      H1503   1.111       .  S
C1499      H1504   1.108       .  S
C1499      H1505   1.110       .  S
C1502      H1506   1.107       .  S
C1502      H1507   1.110       .  S
C1502      H1508   1.111       .  S
C1509      C1510   1.401       .  A
C1509      C1514   1.408       .  A
C1509      H1516   1.084       .  S
C1510      C1511   1.409       .  A
C1511      C1512   1.401       .  A
C1511      C1518   1.508       .  S
C1512      C1513   1.408       .  A
C1512      H1517   1.084       .  S
C1513      C1514   1.421       .  A
C1514      C1515   1.507       .  S
C1515      H1519   1.111       .  S
C1515      H1520   1.107       .  S
C1515      H1521   1.110       .  S
C1518      H1522   1.109       .  S
C1518      H1523   1.111       .  S
C1518      H1524   1.111       .  S
C1525      C1526   1.403       .  A
C1525      C1530   1.400       .  A
C1525      H1532   1.084       .  S
C1526      C1527   1.416       .  A
C1527      C1528   1.403       .  A
C1527      C1534   1.508       .  S
C1528      C1529   1.403       .  A
C1528      H1533   1.084       .  S
C1529      C1530   1.415       .  A
C1530      C1531   1.508       .  S
C1531      H1535   1.111       .  S
C1531      H1536   1.110       .  S
C1531      H1537   1.107       .  S
C1534      H1538   1.110       .  S
C1534      H1539   1.108       .  S
C1534      H1540   1.111       .  S
C1541      C1542   1.406       .  A
C1541      C1546   1.401       .  A
C1541      H1548   1.084       .  S
C1542      C1543   1.418       .  A
C1543      C1544   1.403       .  A
C1543      C1550   1.508       .  S
C1544      C1545   1.402       .  A
C1544      H1549   1.084       .  S
C1545      C1546   1.412       .  A
C1546      C1547   1.508       .  S
C1547      H1551   1.111       .  S
C1547      H1552   1.108       .  S
C1547      H1553   1.110       .  S
C1550      H1554   1.110       .  S
C1550      H1555   1.110       .  S
C1550      H1556   1.111       .  S
C1557      C1558   1.405       .  A
C1557      C1562   1.402       .  A
C1557      H1564   1.084       .  S
C1558      C1559   1.417       .  A
C1559      C1560   1.401       .  A
C1559      C1566   1.508       .  S
C1560      C1561   1.403       .  A
C1560      H1565   1.084       .  S
C1561      C1562   1.414       .  A
C1562      C1563   1.508       .  S
C1563      H1567   1.111       .  S
C1563      H1568   1.110       .  S
C1563      H1569   1.107       .  S
C1566      H1570   1.110       .  S
C1566      H1571   1.108       .  S
C1566      H1572   1.111       .  S
C1573      C1574   1.405       .  A
C1573      C1578   1.400       .  A
C1573      H1580   1.084       .  S
C1574      C1575   1.420       .  A
C1575      C1576   1.403       .  A
C1575      C1582   1.509       .  S
C1576      C1577   1.400       .  A
C1576      H1581   1.084       .  S
C1577      C1578   1.412       .  A
C1578      C1579   1.508       .  S
C1579      H1583   1.111       .  S
C1579      H1584   1.108       .  S
C1579      H1585   1.110       .  S
C1582      H1586   1.110       .  S
C1582      H1587   1.110       .  S
C1582      H1588   1.111       .  S
C1589      C1590   1.405       .  A
C1589      C1594   1.402       .  A
C1589      H1596   1.084       .  S
C1590      C1591   1.416       .  A
C1591      C1592   1.402       .  A
C1591      C1598   1.508       .  S
C1592      C1593   1.404       .  A
C1592      H1597   1.084       .  S
C1593      C1594   1.416       .  A
C1594      C1595   1.508       .  S
C1595      H1599   1.111       .  S
C1595      H1600   1.107       .  S
C1595      H1601   1.110       .  S
C1598      H1602   1.110       .  S
C1598      H1603   1.111       .  S
C1598      H1604   1.111       .  S
C1605      C1606   1.404       .  A
C1605      C1610   1.405       .  A
C1605      H1612   1.084       .  S
C1606      C1607   1.417       .  A
C1607      C1608   1.400       .  A
C1607      C1614   1.510       .  S
C1608      C1609   1.402       .  A
C1608      H1613   1.084       .  S
C1609      C1610   1.414       .  A
C1610      C1611   1.506       .  S
C1611      H1615   1.111       .  S
C1611      H1616   1.108       .  S
C1611      H1617   1.110       .  S
C1614      H1618   1.109       .  S
C1614      H1619   1.111       .  S
C1614      H1620   1.111       .  S
C1621      C1622   1.403       .  A
C1621      C1626   1.402       .  A
C1621      H1628   1.084       .  S
C1622      C1623   1.412       .  A
C1623      C1624   1.405       .  A
C1623      C1630   1.506       .  S
C1624      C1625   1.405       .  A
C1624      H1629   1.084       .  S
C1625      C1626   1.415       .  A
C1626      C1627   1.508       .  S
C1627      H1631   1.111       .  S
C1627      H1632   1.109       .  S
C1627      H1633   1.110       .  S
C1630      H1634   1.109       .  S
C1630      H1635   1.110       .  S
C1630      H1636   1.111       .  S
C1637      C1638   1.407       .  A
C1637      C1642   1.401       .  A
C1637      H1644   1.083       .  S
C1638      C1639   1.419       .  A
C1639      C1640   1.404       .  A
C1639      C1646   1.508       .  S
C1640      C1641   1.402       .  A
C1640      H1645   1.084       .  S
C1641      C1642   1.411       .  A
C1642      C1643   1.508       .  S
C1643      H1647   1.111       .  S
C1643      H1648   1.107       .  S
C1643      H1649   1.110       .  S
C1646      H1650   1.108       .  S
C1646      H1651   1.110       .  S
C1646      H1652   1.111       .  S
C1653      C1654   1.407       .  A
C1653      C1658   1.400       .  A
C1653      H1660   1.084       .  S
C1654      C1655   1.420       .  A
C1655      C1656   1.405       .  A
C1655      C1662   1.508       .  S
C1656      C1657   1.400       .  A
C1656      H1661   1.084       .  S
C1657      C1658   1.409       .  A
C1658      C1659   1.508       .  S
C1659      H1663   1.111       .  S
C1659      H1664   1.109       .  S
C1659      H1665   1.110       .  S
C1662      H1666   1.109       .  S
C1662      H1667   1.110       .  S
C1662      H1668   1.111       .  S
