geometry optimzed in LAMMPS
_audit_creation_date              2020-12-01 
_audit_creation_method            'lammps2cif' 
_symmetry_space_group_name_H-M    'P1' 
_symmetry_Int_Tables_number       1 
_symmetry_cell_setting            triclinic 
loop_ 
_symmetry_equiv_pos_as_xyz 
  x,y,z 
_cell_length_a                    38.23296356 
_cell_length_b                    38.26645352687537 
_cell_length_c                    28.173495358301526 
_cell_angle_alpha                 89.9784222151248 
_cell_angle_beta                  89.10986946029102 
_cell_angle_gamma                 89.41766490366392 
loop_ 
_atom_site_label 
_atom_site_type_symbol 
_atom_site_fract_x 
_atom_site_fract_y 
_atom_site_fract_z 
_atom_site_charge 
N1          N  0.97393488  0.75743826  0.49161144    -0.03000
C2          C  0.97428061  0.72271222  0.48021641    -0.00400
C3          C  0.97569757  0.70229910  0.02049385    -0.23300
C4          C  0.97660980  0.72452688  0.05819014    -0.23500
C5          C  0.97552035  0.75811506  0.04008115    -0.00500
H6          H  0.97745457  0.67406160  0.02200222     0.13200
H7          H  0.97952020  0.71690292  0.09492453     0.13300
N8          N  0.04512763  0.22286443  0.02818597    -0.03000
C9          C  0.05407814  0.25688023  0.03517513    -0.00400
C10         C  0.06521430  0.27192722  0.49301176    -0.23300
C11         C  0.06292138  0.24699876  0.45868492    -0.23500
C12         C  0.05058668  0.21739104  0.48094401    -0.00500
H13         H  0.07115431  0.29921218  0.48711893     0.13200
H14         H  0.06762635  0.25068360  0.42104175     0.13300
N15         N  0.72522740  0.04407401  0.46847129    -0.03000
C16         C  0.75834286  0.05598272  0.46121897    -0.00400
C17         C  0.76507902  0.08356298  0.99123995    -0.23300
C18         C  0.73547680  0.08896292  0.01820848    -0.23500
C19         C  0.71155402  0.06450114  0.00391018    -0.00500
H20         H  0.78965387  0.09702843  0.99487666     0.13200
H21         H  0.73266869  0.10688072  0.04778142     0.13300
N22         N  0.27054760  0.94614308  0.03104960    -0.03000
C23         C  0.23800292  0.93318339  0.03933884    -0.00400
C24         C  0.22935849  0.90925590  0.50485916    -0.23300
C25         C  0.25737019  0.90693610  0.47430573    -0.23500
C26         C  0.28223723  0.92954459  0.49096944    -0.00500
H27         H  0.20457073  0.89620434  0.50107759     0.13200
H28         H  0.25868831  0.89202525  0.44167129     0.13300
N29         N  0.52633863  0.73018397  0.49616694    -0.03000
C30         C  0.53203497  0.76480018  0.48667793    -0.00400
C31         C  0.53294571  0.78398004  0.02809767    -0.23300
C32         C  0.52727141  0.76128086  0.06451903    -0.23500
C33         C  0.52326416  0.72865881  0.04453243    -0.00500
H34         H  0.53543915  0.81204390  0.03119020     0.13200
H35         H  0.52493861  0.76807963  0.10172788     0.13300
N36         N  0.45701805  0.26666815  0.02827928    -0.03000
C37         C  0.44283404  0.23465500  0.03709969    -0.00400
C38         C  0.42746681  0.22151364  0.49689442    -0.23300
C39         C  0.43318007  0.24503490  0.46146489    -0.23500
C40         C  0.45167814  0.27206501  0.48110554    -0.00500
H41         H  0.41634015  0.19582110  0.49263553     0.13200
H42         H  0.42586686  0.24205533  0.42474523     0.13300
N43         N  0.23714133  0.53000614  0.00513411    -0.03000
C44         C  0.27090313  0.53806720  0.01450301    -0.00400
C45         C  0.28698444  0.55326469  0.47558720    -0.23300
C46         C  0.26260483  0.55470708  0.44065536    -0.23500
C47         C  0.23240815  0.54036527  0.45941286    -0.00500
H48         H  0.31393883  0.56148185  0.47261679     0.13200
H49         H  0.26659479  0.56452865  0.40496473     0.13300
N50         N  0.77193682  0.46260993  0.46202583    -0.03000
C51         C  0.73842937  0.45128035  0.45801204    -0.00400
C52         C  0.72998429  0.42870662  0.99461139    -0.23300
C53         C  0.75890834  0.42588072  0.02234987    -0.23500
C54         C  0.78410988  0.44680893  0.00185894    -0.00500
H55         H  0.70477914  0.41700463  0.00169112     0.13200
H56         H  0.76077300  0.41172128  0.05550058     0.13300
O57         O  0.47415604  0.51909158  0.18203936    -0.87900
C58         C  0.45860835  0.55919545  0.31528865     0.88100
Mg59       Mg  0.45639842  0.46872668  0.16131122     1.58100
O60         O  0.54529210  0.53456206  0.28965546    -0.87600
O61         O  0.52259193  0.54949587  0.18560944    -0.75000
C62         C  0.50144488  0.37294930  0.34458624     0.93200
O63         O  0.40984618  0.50721900  0.25424814    -0.74800
O64         O  0.48730668  0.37068057  0.30429771    -0.82300
Mg65       Mg  0.43677227  0.55292252  0.21577284     1.58000
C66         C  0.60480111  0.47664239  0.37712770     0.93100
O67         O  0.46090604  0.59901932  0.17265742    -0.80500
H68         H  0.58762250  0.53652005  0.24708432    -0.05900
C69         C  0.48441095  0.46686290  0.36029059     0.88000
O70         O  0.51155190  0.44605026  0.17404642    -0.75100
O71         O  0.47151211  0.55837285  0.27466442    -0.87800
O72         O  0.58893997  0.50628202  0.37605467    -0.80600
C73         C  0.53377333  0.61042843  0.36887520     0.93200
C74         C  0.48206154  0.62367736  0.18125735     0.93100
Mg75       Mg  0.54897881  0.44181956  0.30861753     1.58000
O76         O  0.52359713  0.39676346  0.35323248    -0.80600
O77         O  0.57532916  0.48743834  0.26867380    -0.74800
O78         O  0.52151551  0.61201999  0.32699064    -0.80600
O79         O  0.39751511  0.54612147  0.15783778    -0.82300
O80         O  0.46354729  0.38298044  0.19790493    -0.80700
C81         C  0.57021860  0.52042610  0.26810844     0.87500
O82         O  0.51394877  0.43636303  0.25052965    -0.87800
O83         O  0.51278490  0.47616944  0.34264944    -0.87900
O84         O  0.46345897  0.44697291  0.33838647    -0.75000
Mg85       Mg  0.52144722  0.57884274  0.25741825     1.58000
O86         O  0.54646533  0.58186894  0.38494997    -0.82300
H87         H  0.50945559  0.51990127  0.12889275    -0.06100
O88         O  0.44037965  0.46053441  0.23346414    -0.87600
H89         H  0.39708988  0.45788920  0.27407034    -0.05900
H90         H  0.55351104  0.42395599  0.20618218    -0.06100
C91         C  0.41490191  0.47427918  0.25414065     0.87500
C92         C  0.50203120  0.52917047  0.16390119     0.88100
C93         C  0.52737325  0.43467562  0.21036580     0.88100
H94         H  0.47686758  0.47648439  0.39508173    -0.06100
O95         O  0.47541110  0.54831324  0.35120981    -0.75100
Mg96       Mg  0.46391055  0.41665204  0.26705221     1.58000
H97         H  0.43216738  0.56893885  0.32031094    -0.06100
C98         C  0.38489848  0.51882857  0.13923036     0.93100
O99         O  0.44104228  0.41411223  0.13879586    -0.82300
C100        C  0.45194591  0.38515811  0.15569568     0.93200
O101        O  0.49792412  0.62511384  0.22047931    -0.82300
Mg102      Mg  0.53144022  0.52654899  0.36227617     1.58200
O103        O  0.40090157  0.48939217  0.14140591    -0.80600
O104        O  0.58958238  0.44869789  0.36486626    -0.82300
O105        O  0.50921393  0.02128535  0.16814833    -0.87900
C106        C  0.55142502  0.04300541  0.29717354     0.88100
Mg107      Mg  0.45455324  0.02527820  0.15324724     1.58100
O108        O  0.55152093  0.95369234  0.27062627    -0.87600
O109        O  0.55195566  0.98203667  0.16650906    -0.75000
C110        C  0.38551037  0.94787870  0.34286007     0.93200
O111        O  0.48288645  0.07685363  0.24617535    -0.74800
O112        O  0.37657717  0.96675297  0.30776221    -0.82300
Mg113      Mg  0.53254295  0.06517180  0.20169518     1.58000
C114        C  0.51540521  0.88044815  0.36380195     0.93100
O115        O  0.58122227  0.05700054  0.15378053    -0.80500
H116        H  0.56383925  0.91462768  0.22607879    -0.05900
C117        C  0.47172639  0.99266213  0.34986642     0.88000
O118        O  0.44978361  0.96595268  0.16441597    -0.75100
O119        O  0.55162834  0.03118661  0.25627418    -0.87800
O120        O  0.53946440  0.90344809  0.36078648    -0.80600
C121        C  0.62407987  0.98407866  0.34281509     0.93200
C122        C  0.61138782  0.04262639  0.15510188     0.93100
Mg123      Mg  0.46424192  0.92513755  0.29576530     1.58000
O124        O  0.41570760  0.93359295  0.34433645    -0.80600
O125        O  0.51376627  0.91339831  0.25098625    -0.74800
O126        O  0.62052752  0.99658249  0.30087033    -0.80600
O127        O  0.51176175  0.10378583  0.14803752    -0.82300
O128        O  0.37665329  0.99408841  0.19772232    -0.80700
C129        C  0.54417262  0.92662541  0.24893321     0.87500
O130        O  0.44529056  0.95902911  0.24149986    -0.87800
O131        O  0.48794730  0.96846726  0.32969167    -0.87900
O132        O  0.44541937  0.00796079  0.33137821    -0.75000
Mg133      Mg  0.58484460  0.98902164  0.23408806     1.58000
O134        O  0.60120125  0.96367514  0.36079914    -0.82300
H135        H  0.51670343  0.98818882  0.11391293    -0.06100
O136        O  0.44552576  0.03611739  0.22687397    -0.87600
H137        H  0.43273907  0.07546297  0.27074572    -0.05900
H138        H  0.44285092  0.91887880  0.19626522    -0.06100
C139        C  0.45257535  0.06343189  0.24819007     0.87500
C140        C  0.52560707  0.99721219  0.14797393     0.88100
C141        C  0.44551924  0.94676578  0.20085474     0.88100
H142        H  0.48071707  0.00165533  0.38389927    -0.06100
O143        O  0.54758110  0.02334344  0.33327882    -0.75100
Mg144      Mg  0.41231014  0.00121533  0.26388882     1.58000
H145        H  0.55396473  0.07085348  0.30232595    -0.06100
C146        C  0.48061934  0.10886240  0.13415485     0.93100
O147        O  0.39598762  0.02485364  0.13576175    -0.82300
C148        C  0.37296650  0.00530212  0.15522651     0.93200
O149        O  0.62042975  0.02353175  0.18992059    -0.82300
Mg150      Mg  0.54268629  0.96378008  0.34420512     1.58200
O151        O  0.45756144  0.08494021  0.13714307    -0.80600
O152        O  0.48481776  0.88660731  0.34863470    -0.82300
O153        O  0.01955387  0.97118849  0.18069137    -0.87900
C154        C  0.03302213  0.92755122  0.31212173     0.88100
Mg155      Mg  0.04110726  0.02078243  0.16022635     1.58100
O156        O  0.94759528  0.95699191  0.29365174    -0.87600
O157        O  0.96880550  0.94444928  0.18742199    -0.75000
C158        C  0.00177530  0.11611578  0.34793117     0.93200
O159        O  0.08375643  0.97810750  0.25141661    -0.74800
O160        O  0.01724031  0.11784237  0.30784252    -0.82300
Mg161      Mg  0.05442729  0.93461770  0.21277532     1.58000
C162        C  0.89313843  0.01708790  0.38549651     0.93100
O163        O  0.02856445  0.88998503  0.16976228    -0.80500
H164        H  0.90464053  0.95817573  0.25397325    -0.05900
C165        C  0.01379651  0.02041688  0.36031817     0.88000
O166        O  0.98719725  0.04657407  0.17565563    -0.75100
O167        O  0.01950625  0.93006142  0.27254469    -0.87800
O168        O  0.90700872  0.98646504  0.38368066    -0.80600
C169        C  0.95791060  0.87923757  0.36996495     0.93200
C170        C  0.00586863  0.86633513  0.17727569     0.93100
Mg171      Mg  0.95032056  0.04970667  0.31310453     1.58000
O172        O  0.97842300  0.09320556  0.35644812    -0.80600
O173        O  0.92084587  0.00617208  0.27439494    -0.74800
O174        O  0.96807447  0.87822713  0.32647365    -0.80600
O175        O  0.09445466  0.93980052  0.15448924    -0.82300
O176        O  0.03771907  0.10617560  0.19839688    -0.80700
C177        C  0.92343892  0.97292834  0.27382087     0.87500
O178        O  0.98515223  0.05447116  0.25275888    -0.87800
O179        O  0.98463690  0.01290100  0.34460574    -0.87900
O180        O  0.03542869  0.03962255  0.33750975    -0.75000
Mg181      Mg  0.96838945  0.91269653  0.25758307     1.58000
O182        O  0.94643654  0.90770747  0.38857905    -0.82300
H183        H  0.98289235  0.97447157  0.13093648    -0.06100
O184        O  0.05695864  0.02696210  0.23168235    -0.87600
H185        H  0.09991403  0.02621666  0.27132484    -0.05900
H186        H  0.94634972  0.06998361  0.21051626    -0.06100
C187        C  0.08117017  0.01129277  0.25161326     0.87500
C188        C  0.99045879  0.96370723  0.16478830     0.88100
C189        C  0.97186705  0.05777341  0.21318509     0.88100
H190        H  0.02141669  0.00979768  0.39422648    -0.06100
O191        O  0.01765442  0.93872982  0.34965549    -0.75100
Mg192      Mg  0.03639660  0.07133983  0.26717678     1.58000
H193        H  0.05890449  0.91614651  0.31474863    -0.06100
C194        C  0.11014146  0.96650771  0.13824306     0.93100
O195        O  0.05997476  0.07518433  0.13803519    -0.82300
C196        C  0.04949936  0.10424475  0.15570873     0.93200
O197        O  0.98757409  0.86606513  0.21537071    -0.82300
Mg198      Mg  0.96329159  0.96321876  0.36537033     1.58200
O199        O  0.09613471  0.99696426  0.14044699    -0.80600
O200        O  0.91001002  0.04398964  0.37198780    -0.82300
O201        O  0.99129141  0.47443166  0.15418733    -0.87900
C202        C  0.94847150  0.45111660  0.28323254     0.88100
Mg203      Mg  0.04540349  0.46736346  0.13710295     1.58100
O204        O  0.95435458  0.54085433  0.26227162    -0.87600
O205        O  0.95177601  0.51683323  0.15658367    -0.75000
C206        C  0.12177173  0.53603019  0.32303361     0.92000
O207        O  0.01434910  0.41579535  0.22810151    -0.74800
O208        O  0.12831918  0.51833550  0.28572289    -0.82300
Mg209      Mg  0.96526032  0.43126203  0.18615322     1.58000
C210        C  0.99399279  0.60907292  0.35659646     0.93100
O211        O  0.91717146  0.44427205  0.14061990    -0.80500
H212        H  0.94334346  0.58273041  0.22249787    -0.05900
C213        C  0.03268816  0.49564468  0.33525019     0.88000
O214        O  0.05329681  0.52643062  0.14957868    -0.75100
O215        O  0.94822017  0.46439976  0.24314075    -0.87800
O216        O  0.96930018  0.58688811  0.35317118    -0.80600
C217        C  0.87934383  0.51337803  0.33490920     0.93200
C218        C  0.88831148  0.46118915  0.14351990     0.93100
Mg219      Mg  0.04304146  0.56438786  0.28486888     1.58000
O220        O  0.09237202  0.55156225  0.32921020    -0.80600
O221        O  0.99362520  0.58053955  0.24448483    -0.74800
O222        O  0.88181052  0.50250518  0.29194703    -0.80600
O223        O  0.98396597  0.39279565  0.13018028    -0.82300
O224        O  0.12463482  0.49506698  0.17605397    -0.80700
C225        C  0.96267140  0.56869891  0.24287156     0.87500
O226        O  0.05909579  0.53162594  0.22671558    -0.87800
O227        O  0.01732210  0.52094831  0.31713100    -0.87900
O228        O  0.05811829  0.47981658  0.31439194    -0.75000
Mg229      Mg  0.91844226  0.50972910  0.22484729     1.58000
O230        O  0.90424270  0.53019397  0.35384453    -0.82300
H231        H  0.98640762  0.50957183  0.10206983    -0.06100
O232        O  0.05365004  0.45536252  0.20955167    -0.87600
H233        H  0.06440910  0.41436806  0.25115156    -0.05900
H234        H  0.06260146  0.57252496  0.18264514    -0.06100
C235        C  0.04522909  0.42788915  0.22992240     0.87500
C236        C  0.97679909  0.50022626  0.13601157     0.88100
C237        C  0.05876513  0.54470846  0.18646846     0.88100
H238        H  0.02376233  0.48623916  0.36949490    -0.06100
O239        O  0.95452068  0.46902093  0.32020132    -0.75100
Mg240      Mg  0.08989117  0.48717233  0.24449241     1.58000
H241        H  0.94432145  0.42332653  0.28678766    -0.06100
C242        C  0.01572177  0.38503597  0.12052676     0.93100
O243        O  0.10342680  0.46435895  0.11635208    -0.82300
C244        C  0.12720999  0.48353820  0.13350895     0.93200
O245        O  0.88060840  0.47994907  0.17957461    -0.82300
Mg246      Mg  0.96280701  0.52760910  0.33446480     1.58200
O247        O  0.03988487  0.40771152  0.12357640    -0.80600
O248        O  0.02488795  0.60198933  0.34182767    -0.82300
C249        C  0.81597183  0.45556287  0.02785857    -0.05000
C250        C  0.81391245  0.48337815  0.06005059    -0.32500
C251        C  0.83747880  0.48582303  0.09735657     0.36800
C252        C  0.86375536  0.45995224  0.10312961    -0.05400
C253        C  0.86733584  0.43356515  0.06850949    -0.32400
C254        C  0.84349365  0.43113555  0.03134229     0.36700
H255        H  0.79249100  0.50207440  0.05809192     0.17100
O256        O  0.83446662  0.51364182  0.12789912    -0.59900
H257        H  0.88788435  0.41399222  0.07113997     0.17100
O258        O  0.84657471  0.40415112  0.99947826    -0.59900
H259        H  0.83263667  0.38488226  0.51341693     0.44100
H260        H  0.81606409  0.50696702  0.15129641     0.44000
C261        C  0.84762091  0.50444192  0.36448057    -0.05000
C262        C  0.82634685  0.47628960  0.35129778    -0.32500
C263        C  0.79991639  0.46371902  0.38196612     0.36800
C264        C  0.79359296  0.47963087  0.42645399    -0.05400
C265        C  0.81331327  0.50895766  0.43848644    -0.32400
C266        C  0.84003221  0.52133012  0.40820107     0.36700
H267        H  0.83149059  0.46256455  0.31825858     0.17100
O268        O  0.78196224  0.43438779  0.36941505    -0.59900
H269        H  0.80882538  0.52156404  0.47243700     0.17100
O270        O  0.85944947  0.54914725  0.42279219    -0.59900
H271        H  0.84833361  0.56993506  0.40809732     0.44100
H272        H  0.79561947  0.41450724  0.38244734     0.44000
C273        C  0.71100228  0.46445010  0.42602600    -0.05000
C274        C  0.69726716  0.44100379  0.39332524    -0.32500
C275        C  0.66347349  0.44563744  0.37579848     0.36800
C276        C  0.64220622  0.47399740  0.39152214    -0.05400
C277        C  0.65708845  0.49909753  0.42138434    -0.32400
C278        C  0.69116485  0.49438344  0.43875153     0.36700
H279        H  0.71186365  0.41753146  0.88386813     0.17100
O280        O  0.65139835  0.42196907  0.34350133    -0.59900
H281        H  0.64164653  0.52137248  0.43339270     0.17100
O282        O  0.70337464  0.51723768  0.47196912    -0.59900
H283        H  0.72069599  0.53180503  0.45470354     0.44100
H284        H  0.64537535  0.40086555  0.86225545     0.44000
C285        C  0.20127668  0.53547855  0.43007655    -0.05000
C286        C  0.17173288  0.55708750  0.43608246    -0.32500
C287        C  0.14550424  0.55789932  0.40164314     0.36800
C288        C  0.14875506  0.53678245  0.36053195    -0.05400
C289        C  0.17800011  0.51435101  0.35593244    -0.32400
C290        C  0.20409688  0.51383510  0.38993746     0.36700
H291        H  0.16975926  0.57444646  0.46639931     0.17100
O292        O  0.11722586  0.57976795  0.40830935    -0.59900
H293        H  0.18104028  0.49721145  0.32552221     0.17100
O294        O  0.23261377  0.49215225  0.38357498    -0.59900
H295        H  0.24820596  0.50448991  0.36079643     0.44100
H296        H  0.12390041  0.60204921  0.39280326     0.44000
C297        C  0.21112549  0.51671743  0.03824409    -0.05000
C298        C  0.20541099  0.53359300  0.08192858    -0.32500
C299        C  0.17894278  0.52271102  0.11363614     0.36800
C300        C  0.15759886  0.49393137  0.10238118    -0.05400
C301        C  0.16392326  0.47666154  0.05882546    -0.32400
C302        C  0.19046503  0.48761056  0.02722529     0.36700
H303        H  0.22088734  0.55613871  0.09084308     0.17100
O304        O  0.17361889  0.54117326  0.15487773    -0.59900
H305        H  0.14808680  0.45458349  0.04897693     0.17100
O306        O  0.19592542  0.46955545  0.98570791    -0.59900
H307        H  0.21851555  0.45697587  0.98960349     0.44100
H308        H  0.15812143  0.56104331  0.14617716     0.44000
C309        C  0.35090924  0.52172933  0.11404926    -0.05000
C310        C  0.33807992  0.49314681  0.08828752    -0.32500
C311        C  0.30828326  0.49677456  0.06010269     0.36800
C312        C  0.29095864  0.52927444  0.05713662    -0.05400
C313        C  0.30186761  0.55687280  0.08560672    -0.32400
C314        C  0.33138387  0.55340114  0.11398320     0.36700
H315        H  0.35206870  0.46838654  0.08809238     0.17100
O316        O  0.29837619  0.46945419  0.03201523    -0.59900
H317        H  0.28901240  0.58216658  0.58303946     0.17100
O318        O  0.34145941  0.58167724  0.14018359    -0.59900
H319        H  0.35464811  0.59674262  0.61768030     0.44100
H320        H  0.27987305  0.45734531  0.05058027     0.44000
C321        C  0.45396385  0.20936474  0.07370071    -0.05000
C322        C  0.42805690  0.18879424  0.09542497    -0.32500
C323        C  0.43626040  0.15620259  0.11525411     0.36800
C324        C  0.47115426  0.14381206  0.11471472    -0.05400
C325        C  0.49741191  0.16542189  0.09560602    -0.32400
C326        C  0.48894707  0.19737790  0.07403777     0.36700
H327        H  0.40084015  0.19681018  0.09357041     0.17100
O328        O  0.40965488  0.13611496  0.13318509    -0.59900
H329        H  0.52441086  0.15653546  0.09459541     0.17100
O330        O  0.51456651  0.21501240  0.54953962    -0.59900
H331        H  0.51465192  0.20506594  0.51702904     0.44100
H332        H  0.40841439  0.14166788  0.16754733     0.44000
C333        C  0.46376465  0.30226743  0.45244904    -0.05000
C334        C  0.44169603  0.31484739  0.41700106    -0.32500
C335        C  0.45385028  0.33782778  0.38240036     0.36800
C336        C  0.48888553  0.34922010  0.38265743    -0.05400
C337        C  0.51044527  0.33876219  0.42019511    -0.32400
C338        C  0.49821527  0.31496230  0.45467838     0.36700
H339        H  0.41495151  0.30588292  0.41514591     0.17100
O340        O  0.43109688  0.34870277  0.34807451    -0.59900
H341        H  0.53714496  0.34785253  0.42167466     0.17100
O342        O  0.52060945  0.30293853  0.48868908    -0.59900
H343        H  0.53364496  0.28325126  0.47355602     0.44100
H344        H  0.42080809  0.37092499  0.36020072     0.44000
C345        C  0.45579947  0.29527560  0.06210937    -0.05000
C346        C  0.43017998  0.32161239  0.05692545    -0.32500
C347        C  0.42828866  0.35041029  0.08742317     0.36800
C348        C  0.45204299  0.35350103  0.12488037    -0.05400
C349        C  0.47725351  0.32681534  0.13100777    -0.32400
C350        C  0.47929257  0.29793380  0.09996784     0.36700
H351        H  0.41143591  0.31987033  0.02861539     0.17100
O352        O  0.40306475  0.37548206  0.08002278    -0.59900
H353        H  0.49613418  0.32881035  0.15913878     0.17100
O354        O  0.50531133  0.27353474  0.10568078    -0.59900
H355        H  0.49835576  0.25996828  0.13424937     0.44100
H356        H  0.38237125  0.36766056  0.09867593     0.44000
C357        C  0.53025709  0.78378326  0.44104852    -0.05000
C358        C  0.55948907  0.80354076  0.42699295    -0.32500
C359        C  0.55565355  0.83427882  0.40005943     0.36800
C360        C  0.52205629  0.84565553  0.38631390    -0.05400
C361        C  0.49339068  0.82389758  0.39657166    -0.32400
C362        C  0.49710356  0.79398850  0.42468792     0.36700
H363        H  0.58498855  0.79704825  0.44099030     0.17100
O364        O  0.58455840  0.85417123  0.39052579    -0.59900
H365        H  0.46723014  0.83154801  0.38627023     0.17100
O366        O  0.46753389  0.77741442  0.94076986    -0.59900
H367        H  0.46003674  0.79029324  0.96980120     0.44100
H368        H  0.59625128  0.84284408  0.36280171     0.44000
C369        C  0.49138658  0.64980882  0.14418214    -0.05000
C370        C  0.52245600  0.66853851  0.14991250    -0.32500
C371        C  0.53414240  0.69205706  0.11563358     0.36800
C372        C  0.51451404  0.69811833  0.07461673    -0.05400
C373        C  0.48398112  0.67881141  0.06751398    -0.32400
C374        C  0.47246243  0.65451142  0.10183869     0.36700
H375        H  0.53843568  0.66461783  0.18092432     0.17100
O376        O  0.56551961  0.70849024  0.12180835    -0.59900
H377        H  0.46848759  0.68341784  0.03621406     0.17100
O378        O  0.44279129  0.63575014  0.09364951    -0.59900
H379        H  0.42328264  0.65029284  0.10663558     0.44100
H380        H  0.56149276  0.72522925  0.14824590     0.44000
C381        C  0.52872615  0.70064764  0.46353476    -0.05000
C382        C  0.51078438  0.70092392  0.42034867    -0.32500
C383        C  0.51248972  0.67231467  0.38895951     0.36800
C384        C  0.53259819  0.64222759  0.40011616    -0.05400
C385        C  0.55096303  0.64218448  0.44294717    -0.32400
C386        C  0.54941652  0.67087550  0.47416001     0.36700
H387        H  0.49472880  0.72302058  0.41087917     0.17100
O388        O  0.49411337  0.67416905  0.34759247    -0.59900
H389        H  0.56704093  0.61983838  0.45235048     0.17100
O390        O  0.56995762  0.67038701  0.51366756    -0.59900
H391        H  0.56207134  0.65006851  0.53279129     0.44100
H392        H  0.47030653  0.66589068  0.35597384     0.44000
C393        C  0.14599777  0.96106999  0.11777522    -0.05000
C394        C  0.16257806  0.92847913  0.12474557    -0.32500
C395        C  0.19481746  0.92056742  0.10326544     0.36800
C396        C  0.21172103  0.94544448  0.07466315    -0.05400
C397        C  0.19677429  0.97895966  0.07026648    -0.32400
C398        C  0.16417902  0.98698401  0.09181171     0.36700
H399        H  0.15002654  0.90830086  0.14570221     0.17100
O400        O  0.20904199  0.88774314  0.60865775    -0.59900
H401        H  0.20911949  0.99808925  0.04730631     0.17100
O402        O  0.14947711  0.01934080  0.08458997    -0.59900
H403        H  0.15851230  0.03418049  0.11042453     0.44100
H404        H  0.19512266  0.87226573  0.58814720     0.44000
C405        C  0.31209718  0.93945908  0.46036185    -0.05000
C406        C  0.34305981  0.91953281  0.46055504    -0.32500
C407        C  0.36743497  0.92188808  0.42283639     0.36800
C408        C  0.36062337  0.94411406  0.38373282    -0.05400
C409        C  0.32994181  0.96470152  0.38478671    -0.32400
C410        C  0.30583972  0.96230406  0.42233521     0.36700
H411        H  0.34758034  0.90096285  0.48890608     0.17100
O412        O  0.39740423  0.90193379  0.42437740    -0.59900
H413        H  0.32412036  0.98245354  0.35595072     0.17100
O414        O  0.27531810  0.98142782  0.92070068    -0.59900
H415        H  0.25907044  0.96709997  0.90192394     0.44100
H416        H  0.39175010  0.87994228  0.40766910     0.44000
C417        C  0.29198940  0.96452806  0.06465373    -0.05000
C418        C  0.29781920  0.94984212  0.10952390    -0.32500
C419        C  0.32274814  0.96375392  0.14019172     0.36800
C420        C  0.34244042  0.99339089  0.12661478    -0.05400
C421        C  0.33496957  0.00925312  0.08264547    -0.32400
C422        C  0.30991266  0.99522070  0.05208928     0.36700
H423        H  0.28422488  0.92625486  0.11980705     0.17100
O424        O  0.32875704  0.94694821  0.18233838    -0.59900
H425        H  0.34923579  0.03216678  0.07126923     0.17100
O426        O  0.30369500  0.01138450  0.00961117    -0.59900
H427        H  0.28045234  0.02284576  0.01355635     0.44100
H428        H  0.34737379  0.92941677  0.17506136     0.44000
C429        C  0.78668962  0.04001784  0.43172840    -0.05000
C430        C  0.80266609  0.00849953  0.44607604    -0.32500
C431        C  0.83694500  0.99958448  0.43049830     0.36800
C432        C  0.85577377  0.02263722  0.40059675    -0.05400
C433        C  0.83838571  0.05271900  0.38387128    -0.32400
C434        C  0.80441551  0.06133078  0.39896039     0.36700
H435        H  0.78965865  0.99212563  0.97215087     0.17100
O436        O  0.85222872  0.96933217  0.44655388    -0.59900
H437        H  0.85154290  0.07047531  0.35972090     0.17100
O438        O  0.78977921  0.09237814  0.38458215    -0.59900
H439        H  0.78179003  0.08808546  0.35179383     0.44100
H440        H  0.86188032  0.97531756  0.97795884     0.44000
C441        C  0.68169121  0.05558137  0.03519703    -0.05000
C442        C  0.68571213  0.02716148  0.06597074    -0.32500
C443        C  0.66322986  0.02275798  0.10508607     0.36800
C444        C  0.63586587  0.04707967  0.11409424    -0.05400
C445        C  0.63100679  0.07484250  0.08197036    -0.32400
C446        C  0.65415036  0.07959755  0.04340472     0.36700
H447        H  0.70768477  0.00931902  0.06120389     0.17100
O448        O  0.66885158  0.99494652  0.13482328    -0.59900
H449        H  0.60996304  0.09363003  0.08763140     0.17100
O450        O  0.65022897  0.10824241  0.01461617    -0.59900
H451        H  0.66217427  0.12750912  0.03118814     0.44100
H452        H  0.65722710  0.97489578  0.11958382     0.44000
C453        C  0.65418302  0.99559271  0.37262660    -0.05000
C454        C  0.67368304  0.02503192  0.35883778    -0.32500
C455        C  0.69811859  0.04002068  0.38931672     0.36800
C456        C  0.70428535  0.02547060  0.43445720    -0.05400
C457        C  0.68604018  0.99527873  0.44769332    -0.32400
C458        C  0.66147516  0.98020217  0.41724652     0.36700
H459        H  0.66873679  0.03773502  0.32520299     0.17100
O460        O  0.71444928  0.07019168  0.87563857    -0.59900
H461        H  0.69029968  0.98374727  0.48221774     0.17100
O462        O  0.64398840  0.95103691  0.43233223    -0.59900
H463        H  0.65788227  0.93101615  0.41961429     0.44100
H464        H  0.70007201  0.08940436  0.88966830     0.44000
C465        C  0.01403225  0.13957978  0.38589694    -0.05000
C466        C  0.04929726  0.14976569  0.38465435    -0.32500
C467        C  0.06229405  0.17267976  0.41839466     0.36800
C468        C  0.03995919  0.18629590  0.45399864    -0.05400
C469        C  0.00532718  0.17455139  0.45741387    -0.32400
C470        C  0.99227695  0.15124690  0.42361117     0.36700
H471        H  0.06694481  0.14015619  0.35703744     0.17100
O472        O  0.09657972  0.18280716  0.41515732    -0.59900
H473        H  0.98780399  0.18511911  0.48451156     0.17100
O474        O  0.95794982  0.14137653  0.42656296    -0.59900
H475        H  0.94503706  0.15869003  0.40713813     0.44100
H476        H  0.10981944  0.16502028  0.43337560     0.44000
C477        C  0.04690892  0.19496748  0.06301821    -0.05000
C478        C  0.07427519  0.17016483  0.05953829    -0.32500
C479        C  0.07574614  0.14107362  0.08976999     0.36800
C480        C  0.04987995  0.13631055  0.12532329    -0.05400
C481        C  0.02292670  0.16160364  0.12973788    -0.32400
C482        C  0.02106761  0.19040693  0.09855096     0.36700
H483        H  0.09443139  0.17314922  0.03243771     0.17100
O484        O  0.10251000  0.11726664  0.08384602    -0.59900
H485        H  0.00239317  0.15828556  0.15624078     0.17100
O486        O  0.99328146  0.21312125  0.10214451    -0.59900
H487        H  0.97460678  0.20243977  0.08306174     0.44100
H488        H  0.12085828  0.12476841  0.10604081     0.44000
C489        C  0.02463656  0.34845615  0.10669180    -0.05000
C490        C  0.99866877  0.32686183  0.08814262    -0.32500
C491        C  0.00687813  0.29320166  0.07133810     0.36800
C492        C  0.04152417  0.28041013  0.07338422    -0.05400
C493        C  0.06663509  0.30052539  0.09638179    -0.32400
C494        C  0.05855921  0.33434233  0.11268760     0.36700
H495        H  0.97229687  0.33685155  0.08377518     0.17100
O496        O  0.98224172  0.27521530  0.04646647    -0.59900
H497        H  0.09353993  0.29139079  0.09738608     0.17100
O498        O  0.08423490  0.35356466  0.13354020    -0.59900
H499        H  0.09908288  0.36219109  0.10692214     0.44100
H500        H  0.96266232  0.27108844  0.06921999     0.44000
C501        C  0.98023784  0.78891650  0.07142246    -0.05000
C502        C  0.00567664  0.81406975  0.06088179    -0.32500
C503        C  0.01503235  0.83912784  0.09493465     0.36800
C504        C  0.99876257  0.83931073  0.14047255    -0.05400
C505        C  0.97281483  0.81442134  0.15013970    -0.32400
C506        C  0.96335917  0.78984141  0.11626225     0.36700
H507        H  0.01938698  0.81343440  0.02695391     0.17100
O508        O  0.03999655  0.86323090  0.08314722    -0.59900
H509        H  0.95939144  0.81393247  0.18427461     0.17100
O510        O  0.93786780  0.76619702  0.12785636    -0.59900
H511        H  0.91567740  0.77710552  0.11729701     0.44100
H512        H  0.06271370  0.85116555  0.08822505     0.44000
C513        C  0.96895543  0.78711543  0.46005403    -0.05000
C514        C  0.99052971  0.79159193  0.41981211    -0.32500
C515        C  0.98668698  0.82085148  0.38990863     0.36800
C516        C  0.96087955  0.84677787  0.39983688    -0.05400
C517        C  0.93913572  0.84211972  0.44007792    -0.32400
C518        C  0.94264454  0.81251829  0.46945491     0.36700
H519        H  0.01116418  0.77286442  0.41211577     0.17100
O520        O  0.00982899  0.82486177  0.35266312    -0.59900
H521        H  0.91908815  0.86140304  0.44865965     0.17100
O522        O  0.92000581  0.80864175  0.50728045    -0.59900
H523        H  0.90388740  0.78978540  0.49794596     0.44100
H524        H  0.00111853  0.80949335  0.32719384     0.44000
C525        C  0.97731227  0.70576887  0.43320379    -0.05000
C526        C  0.94848510  0.68662760  0.41767805    -0.32500
C527        C  0.95314927  0.65615438  0.39040877     0.36800
C528        C  0.98722904  0.64403749  0.37867811    -0.05400
C529        C  0.01567464  0.66557568  0.38951759    -0.32400
C530        C  0.01095966  0.69587565  0.41687034     0.36700
H531        H  0.92247720  0.69331928  0.43079478     0.17100
O532        O  0.92428978  0.63736655  0.37822703    -0.59900
H533        H  0.04212610  0.65768902  0.37983841     0.17100
O534        O  0.03986942  0.71339003  0.93203331    -0.59900
H535        H  0.04716986  0.70120360  0.96139342     0.44100
H536        H  0.91902095  0.64469127  0.34530733     0.44000
N537        N  0.97393409  0.75743826  0.99161112    -0.03000
C538        C  0.97427995  0.72271225  0.98021594    -0.00400
C539        C  0.97569813  0.70229911  0.52049435    -0.23300
C540        C  0.97661031  0.72452698  0.55819055    -0.23500
C541        C  0.97552100  0.75811515  0.54008146    -0.00500
H542        H  0.97745503  0.67406162  0.52200269     0.13200
H543        H  0.97952057  0.71690309  0.59492500     0.13300
N544        N  0.04512681  0.22286443  0.52818563    -0.03000
C545        C  0.05407717  0.25688029  0.53517454    -0.00400
C546        C  0.06521547  0.27192724  0.99301250    -0.23300
C547        C  0.06292246  0.24699893  0.95868550    -0.23500
C548        C  0.05058755  0.21739121  0.98094433    -0.00500
H549        H  0.07115554  0.29921221  0.98711988     0.13200
H550        H  0.06762746  0.25068396  0.92104234     0.13300
N551        N  0.72522706  0.04407482  0.96847134    -0.03000
C552        C  0.75834248  0.05598361  0.96121897    -0.00400
C553        C  0.76507953  0.08356197  0.49124008    -0.23300
C554        C  0.73547738  0.08896189  0.51820872    -0.23500
C555        C  0.71155445  0.06450029  0.50391024    -0.00500
H556        H  0.78965441  0.09702738  0.49487669     0.13200
H557        H  0.73266943  0.10687961  0.54778177     0.13300
N558        N  0.27054743  0.94614303  0.53104957    -0.03000
C559        C  0.23800266  0.93318347  0.53933866    -0.00400
C560        C  0.22935878  0.90925568  0.00485952    -0.23300
C561        C  0.25737050  0.90693581  0.97430610    -0.23500
C562        C  0.28223747  0.92954446  0.99096966    -0.00500
H563        H  0.20457108  0.89620399  0.00107812     0.13200
H564        H  0.25868870  0.89202476  0.94167186     0.13300
N565        N  0.52634033  0.73018364  0.99616641    -0.03000
C566        C  0.53203733  0.76479970  0.98667717    -0.00400
C567        C  0.53294238  0.78398051  0.52809851    -0.23300
C568        C  0.52726822  0.76128116  0.56451974    -0.23500
C569        C  0.52326193  0.72865906  0.54453290    -0.00500
H570        H  0.53543523  0.81204443  0.53119110     0.13200
H571        H  0.52493499  0.76807976  0.60172857     0.13300
N572        N  0.45701891  0.26666778  0.52827886    -0.03000
C573        C  0.44283509  0.23465450  0.53709889    -0.00400
C574        C  0.42746542  0.22151410  0.99689550    -0.23300
C575        C  0.43317874  0.24503515  0.96146570    -0.23500
C576        C  0.45167712  0.27206522  0.98110597    -0.00500
H577        H  0.41633851  0.19582163  0.99263696     0.13200
H578        H  0.42586534  0.24205542  0.92474614     0.13300
N579        N  0.23714170  0.53000557  0.50513415    -0.03000
C580        C  0.27090352  0.53806647  0.51450312    -0.00400
C581        C  0.28698394  0.55326554  0.97558706    -0.23300
C582        C  0.26260426  0.55470782  0.94065531    -0.23500
C583        C  0.23240766  0.54036586  0.95941286    -0.00500
H584        H  0.31393827  0.56148286  0.97261660     0.13200
H585        H  0.26659405  0.56452945  0.90496467     0.13300
N586        N  0.77193720  0.46260994  0.96202608    -0.03000
C587        C  0.73842977  0.45128034  0.95801239    -0.00400
C588        C  0.72998393  0.42870643  0.49461088    -0.23300
C589        C  0.75890799  0.42588041  0.52234932    -0.23500
C590        C  0.78410950  0.44680874  0.50185857    -0.00500
H591        H  0.70477878  0.41700442  0.50169059     0.13200
H592        H  0.76077267  0.41172089  0.55549995     0.13300
O593        O  0.47415628  0.51909081  0.68203949    -0.87900
C594        C  0.45860884  0.55919471  0.81528883     0.88100
Mg595      Mg  0.45639884  0.46872591  0.66131139     1.58100
O596        O  0.54529248  0.53456136  0.78965536    -0.87600
O597        O  0.52259219  0.54949509  0.68560943    -0.75000
C598        C  0.50144543  0.37294865  0.84458618     0.93200
O599        O  0.40984655  0.50721816  0.75424836    -0.74800
O600        O  0.48730754  0.37067987  0.80429746    -0.82300
Mg601      Mg  0.43677252  0.55292164  0.71577316     1.58000
C602        C  0.60480162  0.47664188  0.87712762     0.93100
O603        O  0.46090591  0.59901855  0.67265771    -0.80500
H604        H  0.58762273  0.53651922  0.74708394    -0.05900
C605        C  0.48441151  0.46686210  0.86029070     0.88000
O606        O  0.51155241  0.44604955  0.67404654    -0.75100
O607        O  0.47151253  0.55837202  0.77466458    -0.87800
O608        O  0.58894042  0.50628147  0.87605454    -0.80600
C609        C  0.53377384  0.61042785  0.86887498     0.93200
C610        C  0.48206138  0.62367666  0.68125746     0.93100
Mg611      Mg  0.54897934  0.44181884  0.80861757     1.58000
O612        O  0.52359764  0.39676281  0.85323261    -0.80600
O613        O  0.57532949  0.48743758  0.76867381    -0.74800
O614        O  0.52151587  0.61201939  0.82699051    -0.80600
O615        O  0.39751522  0.54612052  0.65783839    -0.82300
O616        O  0.46354782  0.38297979  0.69790500    -0.80700
C617        C  0.57021890  0.52042533  0.76810825     0.87500
O618        O  0.51394932  0.43636231  0.75052975    -0.87800
O619        O  0.51278545  0.47616868  0.84264954    -0.87900
O620        O  0.46345953  0.44697213  0.83838658    -0.75000
Mg621      Mg  0.52144751  0.57884204  0.75741816     1.58000
O622        O  0.54646587  0.58186836  0.88494969    -0.82300
H623        H  0.50945569  0.51990065  0.62889267    -0.06100
O624        O  0.44038006  0.46053361  0.73346436    -0.87600
H625        H  0.39709041  0.45788843  0.77407087    -0.05900
H626        H  0.55351166  0.42395546  0.70618231    -0.06100
C627        C  0.41490233  0.47427836  0.75414094     0.87500
C628        C  0.50203140  0.52916975  0.66390122     0.88100
C629        C  0.52737380  0.43467495  0.71036591     0.88100
H630        H  0.47686816  0.47648356  0.89508186    -0.06100
O631        O  0.47541165  0.54831259  0.85121000    -0.75100
Mg632      Mg  0.46391112  0.41665130  0.76705228     1.58000
H633        H  0.43216786  0.56893810  0.82031109    -0.06100
C634        C  0.38489872  0.51882764  0.63923073     0.93100
O635        O  0.44104282  0.41411156  0.63879596    -0.82300
C636        C  0.45194641  0.38515745  0.65569576     0.93200
O637        O  0.49792423  0.62511310  0.72047922    -0.82300
Mg638      Mg  0.53144073  0.52654834  0.86227612     1.58200
O639        O  0.40090193  0.48939129  0.64140607    -0.80600
O640        O  0.58958300  0.44869733  0.86486613    -0.82300
O641        O  0.50921417  0.02128491  0.66814816    -0.87900
C642        C  0.55142511  0.04300526  0.79717329     0.88100
Mg643      Mg  0.45455348  0.02527763  0.65324712     1.58100
O644        O  0.55152115  0.95369215  0.77062636    -0.87600
O645        O  0.55195593  0.98203632  0.66650891    -0.75000
C646        C  0.38551061  0.94787860  0.84286041     0.93200
O647        O  0.48288671  0.07685336  0.74617515    -0.74800
O648        O  0.37657745  0.96675293  0.80776259    -0.82300
Mg649      Mg  0.53254320  0.06517145  0.70169498     1.58000
C650        C  0.51540573  0.88044794  0.86380206     0.93100
O651        O  0.58122248  0.05700024  0.65378030    -0.80500
H652        H  0.56383933  0.91462755  0.72607873    -0.05900
C653        C  0.47172667  0.99266202  0.84986650     0.88000
O654        O  0.44978382  0.96595211  0.66441622    -0.75100
O655        O  0.55162854  0.03118636  0.75627400    -0.87800
O656        O  0.53946480  0.90344799  0.86078647    -0.80600
C657        C  0.62408005  0.98407882  0.84281505     0.93200
C658        C  0.61138799  0.04262604  0.65510172     0.93100
Mg659      Mg  0.46424217  0.92513729  0.79576572     1.58000
O660        O  0.41570778  0.93359271  0.84433676    -0.80600
O661        O  0.51376649  0.91339805  0.75098665    -0.74800
O662        O  0.62052767  0.99658257  0.80087027    -0.80600
O663        O  0.51176201  0.10378530  0.64803727    -0.82300
O664        O  0.37665339  0.99408808  0.69772243    -0.80700
C665        C  0.54417280  0.92662520  0.74893337     0.87500
O666        O  0.44529078  0.95902878  0.74150017    -0.87800
O667        O  0.48794755  0.96846711  0.82969180    -0.87900
O668        O  0.44541961  0.00796063  0.83137830    -0.75000
Mg669      Mg  0.58484481  0.98902142  0.73408804     1.58000
O670        O  0.60120150  0.96367522  0.86079910    -0.82300
H671        H  0.51670379  0.98818844  0.61391272    -0.06100
O672        O  0.44552603  0.03611707  0.72687390    -0.87600
H673        H  0.43273932  0.07546283  0.77074539    -0.05900
H674        H  0.44285099  0.91887833  0.69626577    -0.06100
C675        C  0.45257560  0.06343164  0.74818988     0.87500
C676        C  0.52560736  0.99721181  0.64797373     0.88100
C677        C  0.44551942  0.94676534  0.70085511     0.88100
H678        H  0.48071740  0.00165529  0.88389928    -0.06100
O679        O  0.54758113  0.02334337  0.83327865    -0.75100
Mg680      Mg  0.41231039  0.00121509  0.76388893     1.58000
H681        H  0.55396472  0.07085335  0.80232554    -0.06100
C682        C  0.48061968  0.10886183  0.63415431     0.93100
O683        O  0.39598789  0.02485286  0.63576153    -0.82300
C684        C  0.37296666  0.00530158  0.65522649     0.93200
O685        O  0.62042987  0.02353146  0.68992050    -0.82300
Mg686      Mg  0.54268653  0.96378000  0.84420518     1.58200
O687        O  0.45756174  0.08493965  0.63714245    -0.80600
O688        O  0.48481814  0.88660706  0.84863522    -0.82300
O689        O  0.01955355  0.97118895  0.68069174    -0.87900
C690        C  0.03302169  0.92755167  0.81212197     0.88100
Mg691      Mg  0.04110699  0.02078293  0.66022666     1.58100
O692        O  0.94759491  0.95699252  0.79365213    -0.87600
O693        O  0.96880511  0.94444981  0.68742236    -0.75000
C694        C  0.00177543  0.11611609  0.84793174     0.93200
O695        O  0.08375616  0.97810787  0.75141676    -0.74800
O696        O  0.01724029  0.11784264  0.80784300    -0.82300
Mg697      Mg  0.05442688  0.93461811  0.71277554     1.58000
C698        C  0.89313822  0.01708841  0.88549711     0.93100
O699        O  0.02856396  0.88998550  0.66976266    -0.80500
H700        H  0.90464006  0.95817644  0.75397386    -0.05900
C701        C  0.01379641  0.02041721  0.86031858     0.88000
O702        O  0.98719703  0.04657477  0.67565609    -0.75100
O703        O  0.01950579  0.93006189  0.77254494    -0.87800
O704        O  0.90700839  0.98646550  0.88368109    -0.80600
C705        C  0.95791000  0.87923795  0.86996521     0.93200
C706        C  0.00586817  0.86633556  0.67727602     0.93100
Mg707      Mg  0.95032038  0.04970720  0.81310524     1.58000
O708        O  0.97842303  0.09320600  0.85644882    -0.80600
O709        O  0.92084544  0.00617276  0.77439573    -0.74800
O710        O  0.96807389  0.87822758  0.82647392    -0.80600
O711        O  0.09445422  0.93980090  0.65448931    -0.82300
O712        O  0.03771887  0.10617604  0.69839725    -0.80700
C713        C  0.92343851  0.97292901  0.77382146     0.87500
O714        O  0.98515198  0.05447165  0.75275940    -0.87800
O715        O  0.98463674  0.01290141  0.84460624    -0.87900
O716        O  0.03542859  0.03962289  0.83751014    -0.75000
Mg717      Mg  0.96838896  0.91269707  0.75758337     1.58000
O718        O  0.94643599  0.90770783  0.88857938    -0.82300
H719        H  0.98289209  0.97447199  0.63093676    -0.06100
O720        O  0.05695842  0.02696252  0.73168264    -0.87600
H721        H  0.09991377  0.02621702  0.77132516    -0.05900
H722        H  0.94634958  0.06998439  0.71051677    -0.06100
C723        C  0.08116995  0.01129315  0.75161349     0.87500
C724        C  0.99045846  0.96370771  0.66478866     0.88100
C725        C  0.97186685  0.05777404  0.71318560     0.88100
H726        H  0.02141668  0.00979790  0.89422679    -0.06100
O727        O  0.01765396  0.93873021  0.84965575    -0.75100
Mg728      Mg  0.03639644  0.07134019  0.76717718     1.58000
H729        H  0.05890406  0.91614699  0.81474883    -0.06100
C730        C  0.11014110  0.96650802  0.63824306     0.93100
O731        O  0.05997451  0.07518484  0.63803547    -0.82300
C732        C  0.04949915  0.10424525  0.65570908     0.93200
O733        O  0.98757356  0.86606557  0.71537100    -0.82300
Mg734      Mg  0.96329122  0.96321916  0.86537074     1.58200
O735        O  0.09613448  0.99696464  0.64044714    -0.80600
O736        O  0.91000995  0.04399014  0.87198865    -0.82300
O737        O  0.99129124  0.47443194  0.65418703    -0.87900
C738        C  0.94847130  0.45111692  0.78323204     0.88100
Mg739      Mg  0.04540340  0.46736362  0.63710262     1.58100
O740        O  0.95435436  0.54085458  0.76227105    -0.87600
O741        O  0.95177576  0.51683346  0.65658316    -0.75000
C742        C  0.12177149  0.53603052  0.82303338     0.92000
O743        O  0.01434886  0.41579552  0.72810103    -0.74800
O744        O  0.12831894  0.51833572  0.78572275    -0.82300
Mg745      Mg  0.96526008  0.43126231  0.68615270     1.58000
C746        C  0.99399250  0.60907320  0.85659577     0.93100
O747        O  0.91717123  0.44427249  0.64061935    -0.80500
H748        H  0.94334326  0.58273060  0.72249723    -0.05900
C749        C  0.03268792  0.49564498  0.83524978     0.88000
O750        O  0.05329681  0.52643083  0.64957836    -0.75100
O751        O  0.94821993  0.46440001  0.74314020    -0.87800
O752        O  0.96929994  0.58688836  0.85317047    -0.80600
C753        C  0.87934372  0.51337810  0.83490878     0.93200
C754        C  0.88831118  0.46118946  0.64351941     0.93100
Mg755      Mg  0.04304128  0.56438813  0.78486840     1.58000
O756        O  0.09237179  0.55156262  0.82920987    -0.80600
O757        O  0.99362501  0.58053976  0.74448419    -0.74800
O758        O  0.88181035  0.50250521  0.79194662    -0.80600
O759        O  0.98396581  0.39279602  0.63017968    -0.82300
O760        O  0.12463479  0.49506697  0.67605375    -0.80700
C761        C  0.96267120  0.56869913  0.74287094     0.87500
O762        O  0.05909574  0.53162616  0.72671526    -0.87800
O763        O  0.01732190  0.52094857  0.81713045    -0.87900
O764        O  0.05811807  0.47981681  0.81439167    -0.75000
Mg765      Mg  0.91844198  0.50972930  0.72484681     1.58000
O766        O  0.90424256  0.53019419  0.85384393    -0.82300
H767        H  0.98640751  0.50957205  0.60206948    -0.06100
O768        O  0.05365000  0.45536255  0.70955131    -0.87600
H769        H  0.06440878  0.41436805  0.75115129    -0.05900
H770        H  0.06260154  0.57252517  0.68264483    -0.06100
C771        C  0.04522889  0.42788922  0.72992203     0.87500
C772        C  0.97679891  0.50022650  0.63601118     0.88100
C773        C  0.05876516  0.54470867  0.68646814     0.88100
H774        H  0.02376202  0.48623956  0.86949453    -0.06100
O775        O  0.95452046  0.46902133  0.82020074    -0.75100
Mg776      Mg  0.08989104  0.48717248  0.74449218     1.58000
H777        H  0.94432127  0.42332685  0.78678727    -0.06100
C778        C  0.01572161  0.38503617  0.62052640     0.93100
O779        O  0.10342674  0.46435897  0.61635181    -0.82300
C780        C  0.12720999  0.48353813  0.63350874     0.93200
O781        O  0.88060803  0.47994924  0.67957423    -0.82300
Mg782      Mg  0.96280682  0.52760939  0.83446418     1.58200
O783        O  0.03988478  0.40771163  0.62357611    -0.80600
O784        O  0.02488768  0.60198965  0.84182703    -0.82300
C785        C  0.81597133  0.45556273  0.52785835    -0.05000
C786        C  0.81391178  0.48337794  0.56005047    -0.32500
C787        C  0.83747820  0.48582298  0.59735635     0.36800
C788        C  0.86375501  0.45995243  0.60312917    -0.05400
C789        C  0.86733563  0.43356539  0.56850896    -0.32400
C790        C  0.84349333  0.43113560  0.53134191     0.36700
H791        H  0.79249018  0.50207403  0.55809191     0.17100
O792        O  0.83446589  0.51364177  0.62789892    -0.59900
H793        H  0.88788431  0.41399264  0.57113924     0.17100
O794        O  0.84657447  0.40415119  0.49947785    -0.59900
H795        H  0.83263699  0.38488222  0.01341748     0.44100
H796        H  0.81606341  0.50696692  0.65129626     0.44000
C797        C  0.84762093  0.50444189  0.86448033    -0.05000
C798        C  0.82634714  0.47628926  0.85129792    -0.32500
C799        C  0.79991683  0.46371862  0.88196645     0.36800
C800        C  0.79359325  0.47963076  0.92645408    -0.05400
C801        C  0.81331330  0.50895781  0.93848615    -0.32400
C802        C  0.84003211  0.52133032  0.90820062     0.36700
H803        H  0.83149099  0.46256396  0.81825892     0.17100
O804        O  0.78196307  0.43438701  0.86941590    -0.59900
H805        H  0.80882534  0.52156437  0.97243659     0.17100
O806        O  0.85944907  0.54914776  0.92279142    -0.59900
H807        H  0.84833297  0.56993538  0.90809640     0.44100
H808        H  0.79562059  0.41450672  0.88244836     0.44000
C809        C  0.71100271  0.46444998  0.92602629    -0.05000
C810        C  0.69726782  0.44100372  0.89332527    -0.32500
C811        C  0.66347419  0.44563732  0.87579832     0.36800
C812        C  0.64220670  0.47399705  0.89152221    -0.05400
C813        C  0.65708865  0.49909709  0.92138478    -0.32400
C814        C  0.69116504  0.49438312  0.93875205     0.36700
H815        H  0.71186284  0.41753144  0.38386810     0.17100
O816        O  0.65139923  0.42196902  0.84350101    -0.59900
H817        H  0.64164655  0.52137186  0.93339332     0.17100
O818        O  0.70337462  0.51723722  0.97196995    -0.59900
H819        H  0.72069623  0.53180449  0.95470475     0.44100
H820        H  0.64537450  0.40086563  0.36225584     0.44000
C821        C  0.20127621  0.53547901  0.93007657    -0.05000
C822        C  0.17173235  0.55708790  0.93608236    -0.32500
C823        C  0.14550384  0.55789977  0.90164286     0.36800
C824        C  0.14875477  0.53678287  0.86053177    -0.05400
C825        C  0.17799984  0.51435144  0.85593245    -0.32400
C826        C  0.20409656  0.51383557  0.88993751     0.36700
H827        H  0.16975860  0.57444683  0.96639925     0.17100
O828        O  0.11722544  0.57976840  0.90830884    -0.59900
H829        H  0.18104005  0.49721179  0.82552229     0.17100
O830        O  0.23261351  0.49215276  0.88357513    -0.59900
H831        H  0.24820579  0.50449048  0.86079674     0.44100
H832        H  0.12390008  0.60204970  0.89280290     0.44000
C833        C  0.21112577  0.51671695  0.53824409    -0.05000
C834        C  0.20541135  0.53359250  0.58192862    -0.32500
C835        C  0.17894300  0.52271065  0.61363608     0.36800
C836        C  0.15759894  0.49393113  0.60238104    -0.05400
C837        C  0.16392332  0.47666128  0.55882538    -0.32400
C838        C  0.19046515  0.48761018  0.52722524     0.36700
H839        H  0.22088782  0.55613809  0.59084321     0.17100
O840        O  0.17361923  0.54117279  0.65487779    -0.59900
H841        H  0.14808678  0.45458327  0.54897687     0.17100
O842        O  0.19592541  0.46955502  0.48570786    -0.59900
H843        H  0.21851572  0.45697573  0.48960322     0.44100
H844        H  0.15812173  0.56104286  0.64617741     0.44000
C845        C  0.35090949  0.52172838  0.61404956    -0.05000
C846        C  0.33808036  0.49314594  0.58828749    -0.32500
C847        C  0.30828378  0.49677372  0.56010245     0.36800
C848        C  0.29095898  0.52927355  0.55713671    -0.05400
C849        C  0.30186770  0.55687179  0.58560725    -0.32400
C850        C  0.33138395  0.55340011  0.61398378     0.36700
H851        H  0.35206919  0.46838571  0.58809218     0.17100
O852        O  0.29837706  0.46945353  0.53201437    -0.59900
H853        H  0.28901246  0.58216766  0.08303862     0.17100
O854        O  0.34145923  0.58167608  0.64018468    -0.59900
H855        H  0.35464839  0.59674348  0.11767891     0.44100
H856        H  0.27987476  0.45734359  0.55057971     0.44000
C857        C  0.45396465  0.20936422  0.57370003    -0.05000
C858        C  0.42805754  0.18879367  0.59542387    -0.32500
C859        C  0.43626086  0.15620196  0.61525292     0.36800
C860        C  0.47115472  0.14381147  0.61471403    -0.05400
C861        C  0.49741251  0.16542134  0.59560580    -0.32400
C862        C  0.48894784  0.19737737  0.57403748     0.36700
H863        H  0.40084081  0.19680961  0.59356900     0.17100
O864        O  0.40965522  0.13611424  0.63318335    -0.59900
H865        H  0.52441146  0.15653493  0.59459557     0.17100
O866        O  0.51456553  0.21501294  0.04953955    -0.59900
H867        H  0.51465081  0.20506636  0.01702903     0.44100
H868        H  0.40841463  0.14166678  0.66754570     0.44000
C869        C  0.46376399  0.30226733  0.95244907    -0.05000
C870        C  0.44169586  0.31484686  0.91700019    -0.32500
C871        C  0.45385057  0.33782700  0.88239945     0.36800
C872        C  0.48888571  0.34921955  0.88265731    -0.05400
C873        C  0.51044495  0.33876193  0.92019567    -0.32400
C874        C  0.49821456  0.31496230  0.95467901     0.36700
H875        H  0.41495141  0.30588233  0.91514440     0.17100
O876        O  0.43109764  0.34870167  0.84807285    -0.59900
H877        H  0.53714464  0.34785229  0.92167569     0.17100
O878        O  0.52060839  0.30293876  0.98869029    -0.59900
H879        H  0.53364388  0.28325124  0.97355778     0.44100
H880        H  0.42080815  0.37092361  0.86019891     0.44000
C881        C  0.45580016  0.29527507  0.56210920    -0.05000
C882        C  0.43018093  0.32161206  0.55692494    -0.32500
C883        C  0.42828954  0.35040992  0.58742270     0.36800
C884        C  0.45204345  0.35350037  0.62488047    -0.05400
C885        C  0.47725364  0.32681442  0.63100833    -0.32400
C886        C  0.47929283  0.29793295  0.59996825     0.36700
H887        H  0.41143714  0.31987022  0.52861451     0.17100
O888        O  0.40306596  0.37548191  0.58002178    -0.59900
H889        H  0.49613399  0.32880923  0.65913976     0.17100
O890        O  0.50531135  0.27353371  0.60568155    -0.59900
H891        H  0.49835550  0.25996730  0.63425009     0.44100
H892        H  0.38237214  0.36766048  0.59867428     0.44000
C893        C  0.53025878  0.78378284  0.94104781    -0.05000
C894        C  0.55949055  0.80354040  0.92699153    -0.32500
C895        C  0.55565467  0.83427850  0.90005819     0.36800
C896        C  0.52205717  0.84565527  0.88631367    -0.05400
C897        C  0.49339171  0.82389728  0.89657209    -0.32400
C898        C  0.49710501  0.79398809  0.92468806     0.36700
H899        H  0.58499023  0.79704787  0.94098825     0.17100
O900        O  0.58455941  0.85417090  0.89052373    -0.59900
H901        H  0.46723102  0.83154778  0.88627141     0.17100
O902        O  0.46753222  0.77741492  0.44076911    -0.59900
H903        H  0.46003457  0.79029397  0.46980003     0.44100
H904        H  0.59625243  0.84284323  0.86280016     0.44000
C905        C  0.49138600  0.64980827  0.64418228    -0.05000
C906        C  0.52245511  0.66853852  0.64991263    -0.32500
C907        C  0.53414101  0.69205736  0.61563377     0.36800
C908        C  0.51451247  0.69811832  0.57461700    -0.05400
C909        C  0.48397991  0.67881086  0.56751429    -0.32400
C910        C  0.47246172  0.65451060  0.60183891     0.36700
H911        H  0.53843489  0.66461813  0.68092441     0.17100
O912        O  0.56551792  0.70849115  0.62180847    -0.59900
H913        H  0.46848624  0.68341701  0.53621440     0.17100
O914        O  0.44279095  0.63574874  0.59364963    -0.59900
H915        H  0.42328208  0.65029080  0.60663638     0.44100
H916        H  0.56149082  0.72523009  0.64824605     0.44000
C917        C  0.52872745  0.70064720  0.96353439    -0.05000
C918        C  0.51078551  0.70092347  0.92034842    -0.32500
C919        C  0.51249052  0.67231416  0.88895936     0.36800
C920        C  0.53259893  0.64222705  0.90011589    -0.05400
C921        C  0.55096402  0.64218398  0.94294670    -0.32400
C922        C  0.54941777  0.67087504  0.97415949     0.36700
H923        H  0.49473003  0.72302024  0.91087895     0.17100
O924        O  0.49411389  0.67416853  0.84759255    -0.59900
H925        H  0.56704193  0.61983786  0.95234989     0.17100
O926        O  0.56995900  0.67038651  0.01366689    -0.59900
H927        H  0.56207256  0.65006819  0.03279085     0.44100
H928        H  0.47030718  0.66588995  0.85597413     0.44000
C929        C  0.14599736  0.96107014  0.61777500    -0.05000
C930        C  0.16257729  0.92847902  0.62474465    -0.32500
C931        C  0.19481668  0.92056726  0.60326456     0.36800
C932        C  0.21172069  0.94544449  0.57466299    -0.05400
C933        C  0.19677428  0.97895987  0.57026696    -0.32400
C934        C  0.16417897  0.98698427  0.59181214     0.36700
H935        H  0.15002555  0.90830062  0.64570079     0.17100
O936        O  0.20904313  0.88774350  0.10865915    -0.59900
H937        H  0.20911978  0.99808962  0.54730732     0.17100
O938        O  0.14947741  0.01934131  0.58459110    -0.59900
H939        H  0.15851164  0.03418021  0.61042714     0.44100
H940        H  0.19512414  0.87226581  0.08814857     0.44000
C941        C  0.31209741  0.93945892  0.96036209    -0.05000
C942        C  0.34305997  0.91953255  0.96055517    -0.32500
C943        C  0.36743512  0.92188784  0.92283656     0.36800
C944        C  0.36062364  0.94411401  0.88373317    -0.05400
C945        C  0.32994217  0.96470164  0.88478722    -0.32400
C946        C  0.30584003  0.96230405  0.92233561     0.36700
H947        H  0.34758049  0.90096247  0.98890606     0.17100
O948        O  0.39740416  0.90193322  0.92437736    -0.59900
H949        H  0.32412078  0.98245382  0.85595136     0.17100
O950        O  0.27531780  0.98142785  0.42070025    -0.59900
H951        H  0.25907026  0.96710012  0.40192314     0.44100
H952        H  0.39174977  0.87994187  0.90766885     0.44000
C953        C  0.29198930  0.96452786  0.56465377    -0.05000
C954        C  0.29781906  0.94984190  0.60952395    -0.32500
C955        C  0.32274807  0.96375358  0.64019178     0.36800
C956        C  0.34244047  0.99339045  0.62661483    -0.05400
C957        C  0.33496959  0.00925276  0.58264556    -0.32400
C958        C  0.30991261  0.99522046  0.55208941     0.36700
H959        H  0.28422459  0.92625472  0.61980714     0.17100
O960        O  0.32875685  0.94694791  0.68233851    -0.59900
H961        H  0.34923585  0.03216638  0.57126930     0.17100
O962        O  0.30369501  0.01138424  0.50961126    -0.59900
H963        H  0.28045272  0.02284617  0.51355676     0.44100
H964        H  0.34737359  0.92941643  0.67506163     0.44000
C965        C  0.78668932  0.04001863  0.93172856    -0.05000
C966        C  0.80266569  0.00850032  0.94607630    -0.32500
C967        C  0.83694462  0.99958517  0.93049873     0.36800
C968        C  0.85577351  0.02263782  0.90059720    -0.05400
C969        C  0.83838553  0.05271956  0.88387158    -0.32400
C970        C  0.80441530  0.06133145  0.89896052     0.36700
H971        H  0.78965920  0.99212475  0.47215063     0.17100
O972        O  0.85222818  0.96933277  0.94655435    -0.59900
H973        H  0.85154281  0.07047579  0.85972116     0.17100
O974        O  0.78977910  0.09237884  0.88458219    -0.59900
H975        H  0.78178985  0.08808608  0.85179393     0.44100
H976        H  0.86188007  0.97531679  0.47795892     0.44000
C977        C  0.68169150  0.05558067  0.53519688    -0.05000
C978        C  0.68571220  0.02716073  0.56597051    -0.32500
C979        C  0.66322993  0.02275733  0.60508584     0.36800
C980        C  0.63586611  0.04707919  0.61409408    -0.05400
C981        C  0.63100726  0.07484209  0.58197026    -0.32400
C982        C  0.65415082  0.07959702  0.54340457     0.36700
H983        H  0.70768473  0.00931814  0.56120359     0.17100
O984        O  0.66885153  0.99494580  0.63482296    -0.59900
H985        H  0.60996366  0.09362979  0.58763133     0.17100
O986        O  0.65022953  0.10824187  0.51461594    -0.59900
H987        H  0.66217508  0.12750854  0.53118769     0.44100
H988        H  0.65722649  0.97489525  0.61958385     0.44000
C989        C  0.65418306  0.99559312  0.87262661    -0.05000
C990        C  0.67368275  0.02503256  0.85883788    -0.32500
C991        C  0.69811818  0.04002149  0.88931684     0.36800
C992        C  0.70428508  0.02547137  0.93445726    -0.05400
C993        C  0.68604018  0.99527936  0.94769333    -0.32400
C994        C  0.66147531  0.98020260  0.91724652     0.36700
H995        H  0.66873635  0.03773569  0.82520314     0.17100
O996        O  0.71444987  0.07019075  0.37563845    -0.59900
H997        H  0.69029979  0.98374798  0.98221778     0.17100
O998        O  0.64398875  0.95103721  0.93233226    -0.59900
H999        H  0.65788249  0.93101656  0.91961378     0.44100
H1000       H  0.70007262  0.08940351  0.38966802     0.44000
C1001       C  0.01403263  0.13958005  0.88589743    -0.05000
C1002       C  0.04929770  0.14976574  0.88465480    -0.32500
C1003       C  0.06229460  0.17267991  0.91839490     0.36800
C1004       C  0.03995981  0.18629626  0.95399876    -0.05400
C1005       C  0.00532778  0.17455187  0.95741414    -0.32400
C1006       C  0.99227743  0.15124738  0.92361156     0.36700
H1007       H  0.06694520  0.14015602  0.85703796     0.17100
O1008       O  0.09658031  0.18280715  0.91515747    -0.59900
H1009       H  0.98780468  0.18511965  0.98451189     0.17100
O1010       O  0.95795023  0.14137730  0.92656322    -0.59900
H1011       H  0.94503772  0.15869087  0.90713820     0.44100
H1012       H  0.10981999  0.16502015  0.93337559     0.44000
C1013       C  0.04690828  0.19496766  0.56301807    -0.05000
C1014       C  0.07427480  0.17016530  0.55953848    -0.32500
C1015       C  0.07574597  0.14107428  0.58977051     0.36800
C1016       C  0.04987965  0.13631105  0.62532363    -0.05400
C1017       C  0.02292608  0.16160384  0.62973781    -0.32400
C1018       C  0.02106686  0.19040700  0.59855067     0.36700
H1019       H  0.09443103  0.17314980  0.53243797     0.17100
O1020       O  0.10251026  0.11726768  0.58384717    -0.59900
H1021       H  0.00239245  0.15828562  0.65624050     0.17100
O1022       O  0.99328052  0.21312114  0.60214389    -0.59900
H1023       H  0.97460586  0.20243933  0.58306142     0.44100
H1024       H  0.12085836  0.12477012  0.60604177     0.44000
C1025       C  0.02463625  0.34845626  0.60669150    -0.05000
C1026       C  0.99866831  0.32686202  0.58814252    -0.32500
C1027       C  0.00687746  0.29320177  0.57133805     0.36800
C1028       C  0.04152346  0.28041014  0.57338386    -0.05400
C1029       C  0.06663453  0.30052527  0.59638125    -0.32400
C1030       C  0.05855887  0.33434228  0.61268710     0.36700
H1031       H  0.97229646  0.33685187  0.58377515     0.17100
O1032       O  0.98224091  0.27521552  0.54646654    -0.59900
H1033       H  0.09353933  0.29139049  0.59738541     0.17100
O1034       O  0.08423467  0.35356437  0.63353988    -0.59900
H1035       H  0.09908274  0.36219085  0.60692194     0.44100
H1036       H  0.96266158  0.27108868  0.56922018     0.44000
C1037       C  0.98023830  0.78891667  0.57142268    -0.05000
C1038       C  0.00567716  0.81406991  0.56088229    -0.32500
C1039       C  0.01503256  0.83912809  0.59493518     0.36800
C1040       C  0.99876236  0.83931111  0.64047284    -0.05400
C1041       C  0.97281455  0.81442175  0.65013968    -0.32400
C1042       C  0.96335923  0.78984170  0.61626219     0.36700
H1043       H  0.01938779  0.81343449  0.52695460     0.17100
O1044       O  0.03999687  0.86323113  0.58314802    -0.59900
H1045       H  0.95939084  0.81393296  0.68427436     0.17100
O1046       O  0.93786782  0.76619728  0.62785605    -0.59900
H1047       H  0.91567752  0.77710551  0.61729586     0.44100
H1048       H  0.06271398  0.85116596  0.58822682     0.44000
C1049       C  0.96895457  0.78711547  0.96005380    -0.05000
C1050       C  0.99052884  0.79159203  0.91981187    -0.32500
C1051       C  0.98668622  0.82085174  0.88990863     0.36800
C1052       C  0.96087889  0.84677819  0.89983706    -0.05400
C1053       C  0.93913514  0.84212003  0.94007819    -0.32400
C1054       C  0.94264381  0.81251844  0.96945495     0.36700
H1055       H  0.01116323  0.77286449  0.91211545     0.17100
O1056       O  0.00982825  0.82486217  0.85266318    -0.59900
H1057       H  0.91908769  0.86140344  0.94866010     0.17100
O1058       O  0.92000503  0.80864180  0.00728040    -0.59900
H1059       H  0.90388637  0.78978575  0.99794552     0.44100
H1060       H  0.00111770  0.80949402  0.82719370     0.44000
C1061       C  0.97731163  0.70576905  0.93320318    -0.05000
C1062       C  0.94848453  0.68662770  0.91767743    -0.32500
C1063       C  0.95314879  0.65615451  0.89040811     0.36800
C1064       C  0.98722860  0.64403774  0.87867741    -0.05400
C1065       C  0.01567410  0.66557606  0.88951678    -0.32400
C1066       C  0.01095902  0.69587603  0.91686949     0.36700
H1067       H  0.92247660  0.69331933  0.93079415     0.17100
O1068       O  0.92428935  0.63736674  0.87822613    -0.59900
H1069       H  0.04212559  0.65768952  0.87983757     0.17100
O1070       O  0.03987009  0.71338964  0.43203417    -0.59900
H1071       H  0.04717061  0.70120320  0.46139422     0.44100
H1072       H  0.91902058  0.64469166  0.84530647     0.44000
loop_ 
_geom_bond_atom_site_label_1 
_geom_bond_atom_site_label_2 
_geom_bond_distance 
_geom_bond_site_symmetry_2 
_ccdc_geom_bond_type 
N1            C2   1.367       .  A
N1          C541   1.368       .  A
N1          C513   1.455       .  S
C2          C525   1.477       .  S
C2          C539   1.379       .  A
C3            C4   1.362       .  A
C3          C538   1.379   1_554  A
C3            H6   1.083       .  S
C4            C5   1.383       .  A
C4            H7   1.082       .  S
C5          N537   1.368   1_554  A
C5          C501   1.487       .  S
N8            C9   1.364       .  A
N8          C548   1.360   1_554  A
N8          C477   1.452       .  S
C9          C492   1.475       .  S
C9          C546   1.383   1_554  A
C10          C11   1.363       .  A
C10         C545   1.383       .  A
C10          H13   1.083       .  S
C11          C12   1.379       .  A
C11          H14   1.082       .  S
C12         N544   1.360       .  A
C12         C468   1.476       .  S
N15          C16   1.362       .  A
N15         C555   1.363       .  A
N15         C456   1.450       .  S
C16         C429   1.482       .  S
C16         C553   1.381       .  A
C17          C18   1.367   1_556  A
C17         C552   1.381       .  A
C17          H20   1.082       .  S
C18          C19   1.380       .  A
C18          H21   1.083       .  S
C19         N551   1.363   1_554  A
C19         C441   1.474       .  S
N22          C23   1.361       .  A
N22         C562   1.363   1_554  A
N22         C417   1.449       .  S
C23         C396   1.476       .  S
C23         C560   1.381       .  A
C24          C25   1.366       .  A
C24         C559   1.381       .  A
C24          H27   1.082       .  S
C25          C26   1.380       .  A
C25          H28   1.083       .  S
C26         N558   1.363       .  A
C26         C405   1.473       .  S
N29          C30   1.370       .  A
N29         C569   1.367       .  A
N29         C381   1.458       .  S
C30         C357   1.478       .  S
C30         C567   1.380       .  A
C31          C32   1.360       .  A
C31         C566   1.380   1_554  A
C31          H34   1.083       .  S
C32          C33   1.381       .  A
C32          H35   1.082       .  S
C33         N565   1.367   1_554  A
C33         C372   1.481       .  S
N36          C37   1.366       .  A
N36         C576   1.363   1_554  A
N36         C345   1.452       .  S
C37         C321   1.478       .  S
C37         C574   1.381   1_554  A
C38          C39   1.360       .  A
C38         C573   1.381       .  A
C38          H41   1.083       .  S
C39          C40   1.380       .  A
C39          H42   1.082       .  S
C40         N572   1.363       .  A
C40         C333   1.483       .  S
N43          C44   1.360       .  A
N43         C583   1.362   1_554  A
N43         C297   1.449       .  S
C44         C312   1.472       .  S
C44         C581   1.380   1_554  A
C45          C46   1.367       .  A
C45         C580   1.380       .  A
C45          H48   1.082       .  S
C46          C47   1.381       .  A
C46          H49   1.082       .  S
C47         N579   1.362       .  A
C47         C285   1.473       .  S
N50          C51   1.363       .  A
N50         C590   1.361       .  A
N50         C264   1.449       .  S
C51         C273   1.478       .  S
C51         C588   1.381       .  A
C52          C53   1.367   1_556  A
C52         C587   1.381       .  A
C52          H55   1.082   1_556  S
C53          C54   1.379       .  A
C53          H56   1.083       .  S
C54         N586   1.361   1_554  A
C54         C249   1.473       .  S
O57         Mg59   2.135       .  S
O57         Mg65   2.131       .  S
O57          C92   1.240       .  S
C58          H97   1.081       .  S
C58          O71   1.240       .  S
C58          O95   1.275       .  A
Mg59         O88   2.138       .  S
Mg59        O103   2.333       .  S
Mg59         O99   2.270       .  S
Mg59         O70   2.305       .  S
O60        Mg102   2.128       .  S
O60         Mg85   2.126       .  S
O60          C81   1.241       .  S
O61          C92   1.275       .  A
O61         Mg85   2.314       .  S
C62         C336   1.482       .  S
C62          O64   1.268       .  A
C62          O76   1.276       .  A
O63          C91   1.273       .  A
O63         Mg65   2.301       .  S
O64         Mg96   2.234       .  S
Mg65         O71   2.153       .  S
Mg65         O79   2.251       .  S
Mg65         O67   2.331       .  S
C66         C276   1.495       .  S
C66         O104   1.273       .  A
C66          O72   1.281       .  A
O67          C74   1.275       .  A
H68          C81   1.081       .  S
C69          H94   1.081       .  S
C69          O83   1.242       .  S
C69          O84   1.277       .  A
O70          C93   1.271       .  A
O71         Mg85   2.120       .  S
O72        Mg102   2.362       .  S
C73         C384   1.502       .  S
C73          O86   1.277       .  A
C73          O78   1.278       .  A
C74         C369   1.488       .  S
C74         O101   1.270       .  A
Mg75         O82   2.142       .  S
Mg75         O83   2.118       .  S
Mg75         O76   2.343       .  S
Mg75         O77   2.308       .  S
Mg75        O104   2.253       .  S
O77          C81   1.276       .  A
O78         Mg85   2.336       .  S
O79          C98   1.272       .  A
O80         C100   1.278       .  A
O80         Mg96   2.336       .  S
O82         Mg96   2.109       .  S
O82          C93   1.237       .  S
O83        Mg102   2.138       .  S
O84         Mg96   2.321       .  S
Mg85        O101   2.241       .  S
O86        Mg102   2.293       .  S
H87          C92   1.081       .  S
O88         Mg96   2.126       .  S
O88          C91   1.240       .  S
H89          C91   1.081       .  S
H90          C93   1.081       .  S
O95        Mg102   2.316       .  S
C98         C309   1.493       .  S
C98         O103   1.278       .  A
O99         C100   1.275       .  A
C100        C348   1.491       .  S
O105       Mg107   2.142       .  S
O105       Mg113   2.137       .  S
O105        C140   1.242   1_545  S
C106        H145   1.081       .  S
C106        O119   1.238       .  S
C106        O143   1.273       .  A
Mg107       O136   2.138       .  S
Mg107       O151   2.331       .  S
Mg107       O147   2.300       .  S
Mg107       O118   2.300   1_545  S
O108       Mg150   2.130       .  S
O108       Mg133   2.122       .  S
O108        C129   1.240       .  S
O109        C140   1.276       .  A
O109       Mg133   2.315       .  S
C110        C408   1.490       .  S
C110        O112   1.273       .  A
C110        O124   1.274       .  A
O111        C139   1.273       .  A
O111       Mg113   2.299       .  S
O112       Mg144   2.262   1_565  S
Mg113       O119   2.145       .  S
Mg113       O127   2.261       .  S
Mg113       O115   2.301       .  S
C114        C360   1.496       .  S
C114        O152   1.271       .  A
C114        O120   1.281       .  A
O115        C122   1.274       .  A
H116        C129   1.081       .  S
C117        H142   1.081   1_565  S
C117        O131   1.242       .  S
C117        O132   1.277   1_565  A
O118        C141   1.271       .  A
O119       Mg133   2.131   1_545  S
O120       Mg150   2.359       .  S
C121        C453   1.505       .  S
C121        O134   1.277       .  A
C121        O126   1.283       .  A
C122        C444   1.486       .  S
C122        O149   1.273       .  A
Mg123       O130   2.135       .  S
Mg123       O131   2.131       .  S
Mg123       O124   2.309       .  S
Mg123       O125   2.299       .  S
Mg123       O152   2.241       .  S
O125        C129   1.273       .  A
O126       Mg133   2.361       .  S
O127        C146   1.272       .  A
O128        C148   1.281   1_565  A
O128       Mg144   2.344   1_565  S
O130       Mg144   2.128   1_565  S
O130        C141   1.238       .  S
O131       Mg150   2.144       .  S
O132       Mg144   2.317       .  S
Mg133       O149   2.264   1_565  S
O134       Mg150   2.293       .  S
H135        C140   1.081       .  S
O136       Mg144   2.116       .  S
O136        C139   1.240       .  S
H137        C139   1.081       .  S
H138        C141   1.081       .  S
O143       Mg150   2.309   1_545  S
C146        C324   1.488       .  S
C146        O151   1.279       .  A
O147        C148   1.278       .  A
C148        C420   1.503   1_545  S
O153       Mg155   2.152   1_565  S
O153       Mg161   2.133       .  S
O153        C188   1.242   1_455  S
C154        H193   1.081       .  S
C154        O167   1.239       .  S
C154        O191   1.274       .  A
Mg155       O184   2.125       .  S
Mg155       O199   2.344   1_545  S
Mg155       O195   2.294       .  S
Mg155       O166   2.311   1_455  S
O156       Mg198   2.131       .  S
O156       Mg181   2.118       .  S
O156        C177   1.242       .  S
O157        C188   1.277       .  A
O157       Mg181   2.320       .  S
C158        C465   1.481       .  S
C158        O160   1.269       .  A
C158        O172   1.278   1_455  A
O159        C187   1.273   1_565  A
O159       Mg161   2.300       .  S
O160       Mg192   2.228       .  S
Mg161       O167   2.141       .  S
Mg161       O175   2.237       .  S
Mg161       O163   2.332       .  S
C162        C432   1.497       .  S
C162        O200   1.275       .  A
C162        O168   1.282   1_545  A
O163        C170   1.275       .  A
H164        C177   1.081       .  S
C165        H190   1.081       .  S
C165        O179   1.242   1_455  S
C165        O180   1.278       .  A
O166        C189   1.273       .  A
O167       Mg181   2.119   1_455  S
O168       Mg198   2.370       .  S
C169        C516   1.504       .  S
C169        O182   1.280       .  A
C169        O174   1.280       .  A
C170        C504   1.495   1_455  S
C170        O197   1.272   1_455  A
Mg171       O178   2.152       .  S
Mg171       O179   2.119       .  S
Mg171       O172   2.344       .  S
Mg171       O173   2.305       .  S
Mg171       O200   2.259       .  S
O173        C177   1.275   1_545  A
O174       Mg181   2.346       .  S
O175        C194   1.272       .  A
O176        C196   1.280       .  A
O176       Mg192   2.352       .  S
O178       Mg192   2.114   1_655  S
O178        C189   1.238       .  S
O179       Mg198   2.154   1_545  S
O180       Mg192   2.323       .  S
Mg181       O197   2.255       .  S
O182       Mg198   2.317       .  S
H183        C188   1.081       .  S
O184       Mg192   2.110       .  S
O184        C187   1.239       .  S
H185        C187   1.081       .  S
H186        C189   1.081       .  S
O191       Mg198   2.308   1_455  S
C194        C393   1.492       .  S
C194        O199   1.279       .  A
O195        C196   1.277       .  A
C196        C480   1.496       .  S
O201       Mg203   2.131   1_655  S
O201       Mg209   2.130       .  S
O201        C236   1.241       .  S
C202        H241   1.081       .  S
C202        O215   1.239       .  S
C202        O239   1.272       .  A
Mg203       O232   2.120       .  S
Mg203       O247   2.327       .  S
Mg203       O243   2.287       .  S
Mg203       O214   2.311       .  S
O204       Mg246   2.125       .  S
O204       Mg229   2.120       .  S
O204        C225   1.239       .  S
O205        C236   1.275       .  A
O205       Mg229   2.308       .  S
C206        C288   1.489       .  S
C206        O208   1.271       .  A
C206        O220   1.276       .  A
O207        C235   1.274       .  A
O207       Mg209   2.305   1_455  S
O208       Mg240   2.240       .  S
Mg209       O215   2.136       .  S
Mg209       O223   2.261       .  S
Mg209       O211   2.308       .  S
C210        C528   1.494       .  S
C210        O248   1.273   1_655  A
C210        O216   1.281       .  A
O211        C218   1.275       .  A
H212        C225   1.081       .  S
C213        H238   1.081       .  S
C213        O227   1.241       .  S
C213        O228   1.276       .  A
O214        C237   1.274       .  A
O215       Mg229   2.133       .  S
O216       Mg246   2.346       .  S
C217        C261   1.503       .  S
C217        O230   1.278       .  A
C217        O222   1.282       .  A
C218        C252   1.488       .  S
C218        O245   1.273       .  A
Mg219       O226   2.142       .  S
Mg219       O227   2.136       .  S
Mg219       O220   2.327       .  S
Mg219       O221   2.300   1_455  S
Mg219       O248   2.253       .  S
O221        C225   1.273       .  A
O222       Mg229   2.353       .  S
O223        C242   1.272   1_655  A
O224        C244   1.279       .  A
O224       Mg240   2.346       .  S
O226       Mg240   2.123       .  S
O226        C237   1.240       .  S
O227       Mg246   2.146   1_455  S
O228       Mg240   2.316       .  S
Mg229       O245   2.260       .  S
O230       Mg246   2.298       .  S
H231        C236   1.081       .  S
O232       Mg240   2.109       .  S
O232        C235   1.241       .  S
H233        C235   1.081       .  S
H234        C237   1.081       .  S
O239       Mg246   2.304       .  S
C242        C489   1.488       .  S
C242        O247   1.278       .  A
O243        C244   1.275       .  A
C244        C300   1.502       .  S
C249        C250   1.399       .  A
C249        C254   1.405       .  A
C250        C251   1.399       .  A
C250        H255   1.084       .  S
C251        C252   1.414       .  A
C251        O256   1.372       .  S
C252        C253   1.408       .  A
C253        C254   1.403       .  A
C253        H257   1.083       .  S
C254        O258   1.371   1_554  S
O256        H260   0.992       .  S
O258        H795   0.992   1_556  S
H259        O794   0.992       .  S
C261        C262   1.410       .  A
C261        C266   1.416       .  A
C262        C263   1.408       .  A
C262        H267   1.083       .  S
C263        C264   1.410       .  A
C263        O268   1.371       .  S
C264        C265   1.403       .  A
C265        C266   1.406       .  A
C265        H269   1.082       .  S
C266        O270   1.371       .  S
O268        H272   0.992       .  S
O270        H271   0.992       .  S
C273        C274   1.398       .  A
C273        C278   1.411       .  A
C274        C275   1.400       .  A
C274        H815   1.084       .  S
C275        C276   1.416       .  A
C275        O280   1.372       .  S
C276        C277   1.407       .  A
C277        C278   1.409       .  A
C277        H281   1.083       .  S
C278        O282   1.372       .  S
H279        C810   1.084       .  S
O280        H820   0.992       .  S
O282        H283   0.992       .  S
H284        O816   0.992       .  S
C285        C286   1.401       .  A
C285        C290   1.404       .  A
C286        C287   1.406       .  A
C286        H291   1.083       .  S
C287        C288   1.416       .  A
C287        O292   1.371       .  S
C288        C289   1.407       .  A
C289        C290   1.394       .  A
C289        H293   1.083       .  S
C290        O294   1.373       .  S
O292        H296   0.992       .  S
O294        H295   0.992       .  S
C297        C298   1.403       .  A
C297        C302   1.409       .  A
C298        C299   1.406       .  A
C298        H303   1.083       .  S
C299        C300   1.416       .  A
C299        O304   1.371       .  S
C300        C301   1.410       .  A
C301        C302   1.406       .  A
C301        H305   1.083       .  S
C302        O306   1.371   1_554  S
O304        H308   0.992       .  S
O306        H307   0.992       .  S
C309        C310   1.409       .  A
C309        C314   1.417       .  A
C310        C311   1.404       .  A
C310        H315   1.083       .  S
C311        C312   1.406       .  A
C311        O316   1.371       .  S
C312        C313   1.397       .  A
C313        C314   1.398       .  A
C313        H853   1.084       .  S
C314        O318   1.372       .  S
O316        H320   0.992       .  S
H317        C849   1.084       .  S
O318        H855   0.992       .  S
H319        O854   0.992       .  S
C321        C322   1.404       .  A
C321        C326   1.410       .  A
C322        C323   1.401       .  A
C322        H327   1.084       .  S
C323        C324   1.411       .  A
C323        O328   1.371       .  S
C324        C325   1.408       .  A
C325        C326   1.402       .  A
C325        H329   1.083       .  S
C326        O866   1.372       .  S
O328        H332   0.992       .  S
O330        C862   1.372       .  S
O330        H331   0.992       .  S
C333        C334   1.399       .  A
C333        C338   1.411       .  A
C334        C335   1.390       .  A
C334        H339   1.084       .  S
C335        C336   1.413       .  A
C335        O340   1.372       .  S
C336        C337   1.406       .  A
C337        C338   1.409       .  A
C337        H341   1.083       .  S
C338        O342   1.371       .  S
O340        H344   0.992       .  S
O342        H343   0.992       .  S
C345        C346   1.407       .  A
C345        C350   1.409       .  A
C346        C347   1.398       .  A
C346        H351   1.083       .  S
C347        C348   1.409       .  A
C347        O352   1.372       .  S
C348        C349   1.409       .  A
C349        C350   1.410       .  A
C349        H353   1.084       .  S
C350        O354   1.369       .  S
O352        H356   0.992       .  S
O354        H355   0.992       .  S
C357        C358   1.407       .  A
C357        C362   1.407       .  A
C358        C359   1.407       .  A
C358        H363   1.084       .  S
C359        C360   1.412       .  A
C359        O364   1.371       .  S
C360        C361   1.409       .  A
C361        C362   1.399       .  A
C361        H365   1.083       .  S
C362        O902   1.373       .  S
O364        H368   0.992       .  S
O366        C898   1.373       .  S
O366        H367   0.992       .  S
C369        C370   1.405       .  A
C369        C374   1.415       .  A
C370        C371   1.392       .  A
C370        H375   1.083       .  S
C371        C372   1.406       .  A
C371        O376   1.374       .  S
C372        C373   1.405       .  A
C373        C374   1.410       .  A
C373        H377   1.083       .  S
C374        O378   1.371       .  S
O376        H380   0.992       .  S
O378        H379   0.992       .  S
C381        C382   1.406       .  A
C381        C386   1.415       .  A
C382        C383   1.408       .  A
C382        H387   1.076       .  S
C383        C384   1.416       .  A
C383        O388   1.372       .  S
C384        C385   1.405       .  A
C385        C386   1.407       .  A
C385        H389   1.083       .  S
C386        O390   1.372       .  S
O388        H392   0.992       .  S
O390        H391   0.993       .  S
C393        C394   1.408       .  A
C393        C398   1.414       .  A
C394        C395   1.395       .  A
C394        H399   1.083       .  S
C395        C396   1.403       .  A
C395        O936   1.373       .  S
C396        C397   1.405       .  A
C397        C398   1.409       .  A
C397        H401   1.084       .  S
C398        O402   1.371   1_565  S
O400        C931   1.373       .  S
O400        H404   0.992       .  S
O402        H403   0.992       .  S
C405        C406   1.402       .  A
C405        C410   1.404       .  A
C406        C407   1.406       .  A
C406        H411   1.084       .  S
C407        C408   1.417       .  A
C407        O412   1.372       .  S
C408        C409   1.406       .  A
C409        C410   1.396       .  A
C409        H413   1.083       .  S
C410        O950   1.372       .  S
O412        H416   0.992       .  S
O414        C946   1.372       .  S
O414        H415   0.992       .  S
C417        C418   1.403       .  A
C417        C422   1.408       .  A
C418        C419   1.405       .  A
C418        H423   1.083       .  S
C419        C420   1.417       .  A
C419        O424   1.372       .  S
C420        C421   1.411   1_565  A
C421        C422   1.408   1_545  A
C421        H425   1.083       .  S
C422        O426   1.370   1_565  S
O424        H428   0.992       .  S
O426        H427   0.992       .  S
C429        C430   1.408       .  A
C429        C434   1.403       .  A
C430        C431   1.414   1_545  A
C430        H971   1.084   1_545  S
C431        C432   1.414   1_565  A
C431        O436   1.371       .  S
C432        C433   1.408       .  A
C433        C434   1.397       .  A
C433        H437   1.083       .  S
C434        O438   1.372       .  S
H435        C966   1.084   1_565  S
O436        H976   0.992       .  S
O438        H439   0.992       .  S
H440        O972   0.992       .  S
C441        C442   1.399       .  A
C441        C446   1.407       .  A
C442        C443   1.398       .  A
C442        H447   1.084       .  S
C443        C444   1.413       .  A
C443        O448   1.371   1_545  S
C444        C445   1.408       .  A
C445        C446   1.404       .  A
C445        H449   1.083       .  S
C446        O450   1.372       .  S
O448        H452   0.992       .  S
O450        H451   0.992       .  S
C453        C454   1.408   1_565  A
C453        C458   1.418       .  A
C454        C455   1.405       .  A
C454        H459   1.083       .  S
C455        C456   1.410       .  A
C455        O996   1.370       .  S
C456        C457   1.403   1_545  A
C457        C458   1.410       .  A
C457        H461   1.082       .  S
C458        O462   1.371       .  S
O460        C991   1.370       .  S
O460        H464   0.992       .  S
O462        H463   0.992       .  S
C465        C466   1.407       .  A
C465        C470   1.409   1_455  A
C466        C467   1.394       .  A
C466        H471   1.084       .  S
C467        C468   1.404       .  A
C467        O472   1.372       .  S
C468        C469   1.404       .  A
C469        C470   1.406   1_455  A
C469        H473   1.084   1_455  S
C470        O474   1.371       .  S
O472        H476   0.992       .  S
O474        H475   0.992       .  S
C477        C478   1.408       .  A
C477        C482   1.408       .  A
C478        C479   1.403       .  A
C478        H483   1.083       .  S
C479        C480   1.410       .  A
C479        O484   1.371       .  S
C480        C481   1.411       .  A
C481        C482   1.411       .  A
C481        H485   1.083       .  S
C482        O486   1.368   1_455  S
O484        H488   0.992       .  S
O486        H487   0.992       .  S
C489        C490   1.405   1_455  A
C489        C494   1.412       .  A
C490        C491   1.403   1_655  A
C490        H495   1.083       .  S
C491        C492   1.410       .  A
C491        O496   1.373   1_455  S
C492        C493   1.403       .  A
C493        C494   1.403       .  A
C493        H497   1.084       .  S
C494        O498   1.372       .  S
O496        H500   0.992       .  S
O498        H499   0.992       .  S
C501        C502   1.404   1_655  A
C501        C506   1.410       .  A
C502        C503   1.409       .  A
C502        H507   1.083       .  S
C503        C504   1.417   1_455  A
C503        O508   1.371       .  S
C504        C505   1.406       .  A
C505        C506   1.395       .  A
C505        H509   1.083       .  S
C506        O510   1.372       .  S
O508        H512   0.992       .  S
O510        H511   0.992       .  S
C513        C514   1.403       .  A
C513        C518   1.414       .  A
C514        C515   1.409       .  A
C514        H519   1.080   1_655  S
C515        C516   1.417       .  A
C515        O520   1.372   1_655  S
C516        C517   1.408       .  A
C517        C518   1.409       .  A
C517        H521   1.083       .  S
C518        O522   1.371       .  S
O520        H524   0.992       .  S
O522        H523   0.992       .  S
C525        C526   1.405       .  A
C525        C530   1.408   1_655  A
C526        C527   1.405       .  A
C526        H531   1.084       .  S
C527        C528   1.413       .  A
C527        O532   1.371       .  S
C528        C529   1.409   1_655  A
C529        C530   1.401       .  A
C529        H533   1.083       .  S
C530       O1070   1.372       .  S
O532        H536   0.992       .  S
O534       C1066   1.372       .  S
O534        H535   0.992       .  S
N537        C538   1.367       .  A
N537       C1049   1.455       .  S
C538       C1061   1.477       .  S
C539        C540   1.362       .  A
C539        H542   1.083       .  S
C540        C541   1.383       .  A
C540        H543   1.082       .  S
C541       C1037   1.487       .  S
N544        C545   1.364       .  A
N544       C1013   1.452       .  S
C545       C1028   1.475       .  S
C546        C547   1.363       .  A
C546        H549   1.083       .  S
C547        C548   1.379       .  A
C547        H550   1.082       .  S
C548       C1004   1.476       .  S
N551        C552   1.362       .  A
N551        C992   1.450       .  S
C552        C965   1.482       .  S
C553        C554   1.367       .  A
C553        H556   1.082       .  S
C554        C555   1.380       .  A
C554        H557   1.083       .  S
C555        C977   1.474       .  S
N558        C559   1.361       .  A
N558        C953   1.449       .  S
C559        C932   1.476       .  S
C560        C561   1.366   1_554  A
C560        H563   1.082       .  S
C561        C562   1.380       .  A
C561        H564   1.083       .  S
C562        C941   1.473       .  S
N565        C566   1.370       .  A
N565        C917   1.458       .  S
C566        C893   1.478       .  S
C567        C568   1.360       .  A
C567        H570   1.083       .  S
C568        C569   1.381       .  A
C568        H571   1.082       .  S
C569        C908   1.481       .  S
N572        C573   1.366       .  A
N572        C881   1.452       .  S
C573        C857   1.478       .  S
C574        C575   1.360       .  A
C574        H577   1.083       .  S
C575        C576   1.380       .  A
C575        H578   1.082       .  S
C576        C869   1.483       .  S
N579        C580   1.360       .  A
N579        C833   1.449       .  S
C580        C848   1.472       .  S
C581        C582   1.367       .  A
C581        H584   1.082       .  S
C582        C583   1.381       .  A
C582        H585   1.082       .  S
C583        C821   1.473       .  S
N586        C587   1.363       .  A
N586        C800   1.449       .  S
C587        C809   1.478       .  S
C588        C589   1.367       .  A
C588        H591   1.082       .  S
C589        C590   1.379       .  A
C589        H592   1.083       .  S
C590        C785   1.473       .  S
O593       Mg595   2.135       .  S
O593       Mg601   2.131       .  S
O593        C628   1.240       .  S
C594        H633   1.081       .  S
C594        O607   1.240       .  S
C594        O631   1.275       .  A
Mg595       O624   2.138       .  S
Mg595       O639   2.333       .  S
Mg595       O635   2.270       .  S
Mg595       O606   2.305       .  S
O596       Mg638   2.128       .  S
O596       Mg621   2.126       .  S
O596        C617   1.241       .  S
O597        C628   1.275       .  A
O597       Mg621   2.314       .  S
C598        C872   1.482       .  S
C598        O600   1.268       .  A
C598        O612   1.276       .  A
O599        C627   1.273       .  A
O599       Mg601   2.301       .  S
O600       Mg632   2.234       .  S
Mg601       O607   2.153       .  S
Mg601       O615   2.251       .  S
Mg601       O603   2.331       .  S
C602        C812   1.495       .  S
C602        O640   1.273       .  A
C602        O608   1.281       .  A
O603        C610   1.275       .  A
H604        C617   1.081       .  S
C605        H630   1.081       .  S
C605        O619   1.242       .  S
C605        O620   1.277       .  A
O606        C629   1.271       .  A
O607       Mg621   2.120       .  S
O608       Mg638   2.361       .  S
C609        C920   1.502       .  S
C609        O622   1.277       .  A
C609        O614   1.278       .  A
C610        C905   1.488       .  S
C610        O637   1.270       .  A
Mg611       O618   2.142       .  S
Mg611       O619   2.118       .  S
Mg611       O612   2.343       .  S
Mg611       O613   2.308       .  S
Mg611       O640   2.253       .  S
O613        C617   1.276       .  A
O614       Mg621   2.336       .  S
O615        C634   1.272       .  A
O616        C636   1.278       .  A
O616       Mg632   2.336       .  S
O618       Mg632   2.109       .  S
O618        C629   1.237       .  S
O619       Mg638   2.138       .  S
O620       Mg632   2.321       .  S
Mg621       O637   2.241       .  S
O622       Mg638   2.293       .  S
H623        C628   1.081       .  S
O624       Mg632   2.126       .  S
O624        C627   1.240       .  S
H625        C627   1.081       .  S
H626        C629   1.081       .  S
O631       Mg638   2.316       .  S
C634        C845   1.493       .  S
C634        O639   1.278       .  A
O635        C636   1.275       .  A
C636        C884   1.491       .  S
O641       Mg643   2.142       .  S
O641       Mg649   2.137       .  S
O641        C676   1.242   1_545  S
C642        H681   1.081       .  S
C642        O655   1.238       .  S
C642        O679   1.273       .  A
Mg643       O672   2.138       .  S
Mg643       O687   2.331       .  S
Mg643       O683   2.300       .  S
Mg643       O654   2.300   1_545  S
O644       Mg686   2.130       .  S
O644       Mg669   2.122       .  S
O644        C665   1.240       .  S
O645        C676   1.276       .  A
O645       Mg669   2.315       .  S
C646        C944   1.490       .  S
C646        O648   1.273       .  A
C646        O660   1.274       .  A
O647        C675   1.273       .  A
O647       Mg649   2.299       .  S
O648       Mg680   2.262   1_565  S
Mg649       O655   2.145       .  S
Mg649       O663   2.261       .  S
Mg649       O651   2.301       .  S
C650        C896   1.496       .  S
C650        O688   1.271       .  A
C650        O656   1.281       .  A
O651        C658   1.274       .  A
H652        C665   1.081       .  S
C653        H678   1.081   1_565  S
C653        O667   1.242       .  S
C653        O668   1.277   1_565  A
O654        C677   1.271       .  A
O655       Mg669   2.131   1_545  S
O656       Mg686   2.359       .  S
C657        C989   1.505       .  S
C657        O670   1.277       .  A
C657        O662   1.283       .  A
C658        C980   1.486       .  S
C658        O685   1.273       .  A
Mg659       O666   2.135       .  S
Mg659       O667   2.131       .  S
Mg659       O660   2.309       .  S
Mg659       O661   2.299       .  S
Mg659       O688   2.241       .  S
O661        C665   1.273       .  A
O662       Mg669   2.361       .  S
O663        C682   1.272       .  A
O664        C684   1.281   1_565  A
O664       Mg680   2.344   1_565  S
O666       Mg680   2.128   1_565  S
O666        C677   1.238       .  S
O667       Mg686   2.144       .  S
O668       Mg680   2.317       .  S
Mg669       O685   2.264   1_565  S
O670       Mg686   2.293       .  S
H671        C676   1.081       .  S
O672       Mg680   2.116       .  S
O672        C675   1.240       .  S
H673        C675   1.081       .  S
H674        C677   1.081       .  S
O679       Mg686   2.309   1_545  S
C682        C860   1.488       .  S
C682        O687   1.279       .  A
O683        C684   1.278       .  A
C684        C956   1.503   1_545  S
O689       Mg691   2.152   1_565  S
O689       Mg697   2.133       .  S
O689        C724   1.242   1_455  S
C690        H729   1.081       .  S
C690        O703   1.239       .  S
C690        O727   1.274       .  A
Mg691       O720   2.125       .  S
Mg691       O735   2.344   1_545  S
Mg691       O731   2.294       .  S
Mg691       O702   2.311   1_455  S
O692       Mg734   2.131       .  S
O692       Mg717   2.118       .  S
O692        C713   1.242       .  S
O693        C724   1.277       .  A
O693       Mg717   2.320       .  S
C694       C1001   1.481       .  S
C694        O696   1.269       .  A
C694        O708   1.278   1_455  A
O695        C723   1.273   1_565  A
O695       Mg697   2.300       .  S
O696       Mg728   2.228       .  S
Mg697       O703   2.141       .  S
Mg697       O711   2.237       .  S
Mg697       O699   2.332       .  S
C698        C968   1.497       .  S
C698        O736   1.275       .  A
C698        O704   1.282   1_545  A
O699        C706   1.275       .  A
H700        C713   1.081       .  S
C701        H726   1.081       .  S
C701        O715   1.242   1_455  S
C701        O716   1.278       .  A
O702        C725   1.273       .  A
O703       Mg717   2.119   1_455  S
O704       Mg734   2.370       .  S
C705       C1052   1.504       .  S
C705        O718   1.280       .  A
C705        O710   1.280       .  A
C706       C1040   1.495   1_455  S
C706        O733   1.272   1_455  A
Mg707       O714   2.152       .  S
Mg707       O715   2.119       .  S
Mg707       O708   2.344       .  S
Mg707       O709   2.305       .  S
Mg707       O736   2.259       .  S
O709        C713   1.275   1_545  A
O710       Mg717   2.346       .  S
O711        C730   1.272       .  A
O712        C732   1.280       .  A
O712       Mg728   2.352       .  S
O714       Mg728   2.114   1_655  S
O714        C725   1.238       .  S
O715       Mg734   2.154   1_545  S
O716       Mg728   2.323       .  S
Mg717       O733   2.255       .  S
O718       Mg734   2.317       .  S
H719        C724   1.081       .  S
O720       Mg728   2.110       .  S
O720        C723   1.239       .  S
H721        C723   1.081       .  S
H722        C725   1.081       .  S
O727       Mg734   2.308   1_455  S
C730        C929   1.492       .  S
C730        O735   1.279       .  A
O731        C732   1.277       .  A
C732       C1016   1.496       .  S
O737       Mg739   2.131   1_655  S
O737       Mg745   2.130       .  S
O737        C772   1.241       .  S
C738        H777   1.081       .  S
C738        O751   1.239       .  S
C738        O775   1.272       .  A
Mg739       O768   2.120       .  S
Mg739       O783   2.327       .  S
Mg739       O779   2.287       .  S
Mg739       O750   2.311       .  S
O740       Mg782   2.125       .  S
O740       Mg765   2.120       .  S
O740        C761   1.239       .  S
O741        C772   1.275       .  A
O741       Mg765   2.308       .  S
C742        C824   1.489       .  S
C742        O744   1.271       .  A
C742        O756   1.276       .  A
O743        C771   1.274       .  A
O743       Mg745   2.305   1_455  S
O744       Mg776   2.240       .  S
Mg745       O751   2.136       .  S
Mg745       O759   2.261       .  S
Mg745       O747   2.308       .  S
C746       C1064   1.494       .  S
C746        O784   1.273   1_655  A
C746        O752   1.281       .  A
O747        C754   1.275       .  A
H748        C761   1.081       .  S
C749        H774   1.081       .  S
C749        O763   1.241       .  S
C749        O764   1.276       .  A
O750        C773   1.274       .  A
O751       Mg765   2.133       .  S
O752       Mg782   2.346       .  S
C753        C797   1.503       .  S
C753        O766   1.278       .  A
C753        O758   1.282       .  A
C754        C788   1.488       .  S
C754        O781   1.273       .  A
Mg755       O762   2.142       .  S
Mg755       O763   2.136       .  S
Mg755       O756   2.327       .  S
Mg755       O757   2.300   1_455  S
Mg755       O784   2.253       .  S
O757        C761   1.273       .  A
O758       Mg765   2.353       .  S
O759        C778   1.272   1_655  A
O760        C780   1.279       .  A
O760       Mg776   2.346       .  S
O762       Mg776   2.123       .  S
O762        C773   1.240       .  S
O763       Mg782   2.146   1_455  S
O764       Mg776   2.316       .  S
Mg765       O781   2.260       .  S
O766       Mg782   2.298       .  S
H767        C772   1.081       .  S
O768       Mg776   2.109       .  S
O768        C771   1.241       .  S
H769        C771   1.081       .  S
H770        C773   1.081       .  S
O775       Mg782   2.304       .  S
C778       C1025   1.488       .  S
C778        O783   1.278       .  A
O779        C780   1.275       .  A
C780        C836   1.502       .  S
C785        C786   1.399       .  A
C785        C790   1.405       .  A
C786        C787   1.399       .  A
C786        H791   1.084       .  S
C787        C788   1.414       .  A
C787        O792   1.372       .  S
C788        C789   1.408       .  A
C789        C790   1.403       .  A
C789        H793   1.083       .  S
C790        O794   1.371       .  S
O792        H796   0.992       .  S
C797        C798   1.410       .  A
C797        C802   1.416       .  A
C798        C799   1.408       .  A
C798        H803   1.083       .  S
C799        C800   1.410       .  A
C799        O804   1.371       .  S
C800        C801   1.403       .  A
C801        C802   1.406       .  A
C801        H805   1.082       .  S
C802        O806   1.371       .  S
O804        H808   0.992       .  S
O806        H807   0.992       .  S
C809        C810   1.398       .  A
C809        C814   1.411       .  A
C810        C811   1.400       .  A
C811        C812   1.416       .  A
C811        O816   1.372       .  S
C812        C813   1.407       .  A
C813        C814   1.409       .  A
C813        H817   1.083       .  S
C814        O818   1.372       .  S
O818        H819   0.992       .  S
C821        C822   1.401       .  A
C821        C826   1.404       .  A
C822        C823   1.406       .  A
C822        H827   1.083       .  S
C823        C824   1.416       .  A
C823        O828   1.371       .  S
C824        C825   1.407       .  A
C825        C826   1.394       .  A
C825        H829   1.083       .  S
C826        O830   1.373       .  S
O828        H832   0.992       .  S
O830        H831   0.992       .  S
C833        C834   1.403       .  A
C833        C838   1.409       .  A
C834        C835   1.406       .  A
C834        H839   1.083       .  S
C835        C836   1.416       .  A
C835        O840   1.371       .  S
C836        C837   1.410       .  A
C837        C838   1.406       .  A
C837        H841   1.083       .  S
C838        O842   1.371       .  S
O840        H844   0.992       .  S
O842        H843   0.992       .  S
C845        C846   1.409       .  A
C845        C850   1.417       .  A
C846        C847   1.404       .  A
C846        H851   1.083       .  S
C847        C848   1.406       .  A
C847        O852   1.371       .  S
C848        C849   1.397       .  A
C849        C850   1.398       .  A
C850        O854   1.372       .  S
O852        H856   0.992       .  S
C857        C858   1.404       .  A
C857        C862   1.410       .  A
C858        C859   1.401       .  A
C858        H863   1.084       .  S
C859        C860   1.411       .  A
C859        O864   1.371       .  S
C860        C861   1.408       .  A
C861        C862   1.402       .  A
C861        H865   1.083       .  S
O864        H868   0.992       .  S
O866        H867   0.992       .  S
C869        C870   1.400       .  A
C869        C874   1.411       .  A
C870        C871   1.390       .  A
C870        H875   1.084       .  S
C871        C872   1.413       .  A
C871        O876   1.372       .  S
C872        C873   1.406       .  A
C873        C874   1.409       .  A
C873        H877   1.083       .  S
C874        O878   1.371       .  S
O876        H880   0.992       .  S
O878        H879   0.992       .  S
C881        C882   1.407       .  A
C881        C886   1.409       .  A
C882        C883   1.398       .  A
C882        H887   1.083       .  S
C883        C884   1.409       .  A
C883        O888   1.372       .  S
C884        C885   1.409       .  A
C885        C886   1.410       .  A
C885        H889   1.084       .  S
C886        O890   1.369       .  S
O888        H892   0.992       .  S
O890        H891   0.992       .  S
C893        C894   1.407       .  A
C893        C898   1.407       .  A
C894        C895   1.407       .  A
C894        H899   1.084       .  S
C895        C896   1.412       .  A
C895        O900   1.371       .  S
C896        C897   1.409       .  A
C897        C898   1.399       .  A
C897        H901   1.083       .  S
O900        H904   0.992       .  S
O902        H903   0.992       .  S
C905        C906   1.405       .  A
C905        C910   1.415       .  A
C906        C907   1.392       .  A
C906        H911   1.083       .  S
C907        C908   1.406       .  A
C907        O912   1.374       .  S
C908        C909   1.405       .  A
C909        C910   1.410       .  A
C909        H913   1.083       .  S
C910        O914   1.371       .  S
O912        H916   0.992       .  S
O914        H915   0.992       .  S
C917        C918   1.406       .  A
C917        C922   1.415       .  A
C918        C919   1.408       .  A
C918        H923   1.076       .  S
C919        C920   1.416       .  A
C919        O924   1.372       .  S
C920        C921   1.405       .  A
C921        C922   1.407       .  A
C921        H925   1.083       .  S
C922        O926   1.372   1_556  S
O924        H928   0.992       .  S
O926        H927   0.993       .  S
C929        C930   1.408       .  A
C929        C934   1.414       .  A
C930        C931   1.395       .  A
C930        H935   1.083       .  S
C931        C932   1.403       .  A
C932        C933   1.405       .  A
C933        C934   1.409       .  A
C933        H937   1.084       .  S
C934        O938   1.371   1_565  S
O936        H940   0.992       .  S
O938        H939   0.992       .  S
C941        C942   1.402       .  A
C941        C946   1.404       .  A
C942        C943   1.406       .  A
C942        H947   1.084       .  S
C943        C944   1.417       .  A
C943        O948   1.372       .  S
C944        C945   1.406       .  A
C945        C946   1.396       .  A
C945        H949   1.083       .  S
O948        H952   0.992       .  S
O950        H951   0.992       .  S
C953        C954   1.403       .  A
C953        C958   1.408       .  A
C954        C955   1.405       .  A
C954        H959   1.083       .  S
C955        C956   1.417       .  A
C955        O960   1.372       .  S
C956        C957   1.411   1_565  A
C957        C958   1.408   1_545  A
C957        H961   1.083       .  S
C958        O962   1.370   1_565  S
O960        H964   0.992       .  S
O962        H963   0.992       .  S
C965        C966   1.408       .  A
C965        C970   1.403       .  A
C966        C967   1.414   1_545  A
C967        C968   1.414   1_565  A
C967        O972   1.371       .  S
C968        C969   1.408       .  A
C969        C970   1.397       .  A
C969        H973   1.083       .  S
C970        O974   1.372       .  S
O974        H975   0.992       .  S
C977        C978   1.399       .  A
C977        C982   1.407       .  A
C978        C979   1.398       .  A
C978        H983   1.084       .  S
C979        C980   1.413       .  A
C979        O984   1.371   1_545  S
C980        C981   1.408       .  A
C981        C982   1.404       .  A
C981        H985   1.083       .  S
C982        O986   1.372       .  S
O984        H988   0.992       .  S
O986        H987   0.992       .  S
C989        C990   1.408   1_565  A
C989        C994   1.418       .  A
C990        C991   1.405       .  A
C990        H995   1.083       .  S
C991        C992   1.410       .  A
C992        C993   1.403   1_545  A
C993        C994   1.410       .  A
C993        H997   1.082       .  S
C994        O998   1.371       .  S
O996       H1000   0.992       .  S
O998        H999   0.992       .  S
C1001      C1002   1.407       .  A
C1001      C1006   1.409   1_455  A
C1002      C1003   1.394       .  A
C1002      H1007   1.084       .  S
C1003      C1004   1.404       .  A
C1003      O1008   1.372       .  S
C1004      C1005   1.404       .  A
C1005      C1006   1.406   1_455  A
C1005      H1009   1.084   1_455  S
C1006      O1010   1.371       .  S
O1008      H1012   0.992       .  S
O1010      H1011   0.992       .  S
C1013      C1014   1.408       .  A
C1013      C1018   1.408       .  A
C1014      C1015   1.403       .  A
C1014      H1019   1.083       .  S
C1015      C1016   1.410       .  A
C1015      O1020   1.371       .  S
C1016      C1017   1.411       .  A
C1017      C1018   1.411       .  A
C1017      H1021   1.083       .  S
C1018      O1022   1.368   1_455  S
O1020      H1024   0.992       .  S
O1022      H1023   0.992       .  S
C1025      C1026   1.405   1_455  A
C1025      C1030   1.412       .  A
C1026      C1027   1.403   1_655  A
C1026      H1031   1.083       .  S
C1027      C1028   1.410       .  A
C1027      O1032   1.373   1_455  S
C1028      C1029   1.403       .  A
C1029      C1030   1.403       .  A
C1029      H1033   1.084       .  S
C1030      O1034   1.372       .  S
O1032      H1036   0.992       .  S
O1034      H1035   0.992       .  S
C1037      C1038   1.404   1_655  A
C1037      C1042   1.410       .  A
C1038      C1039   1.409       .  A
C1038      H1043   1.083       .  S
C1039      C1040   1.417   1_455  A
C1039      O1044   1.371       .  S
C1040      C1041   1.406       .  A
C1041      C1042   1.395       .  A
C1041      H1045   1.083       .  S
C1042      O1046   1.372       .  S
O1044      H1048   0.992       .  S
O1046      H1047   0.992       .  S
C1049      C1050   1.403       .  A
C1049      C1054   1.414       .  A
C1050      C1051   1.409       .  A
C1050      H1055   1.080   1_655  S
C1051      C1052   1.417       .  A
C1051      O1056   1.372   1_655  S
C1052      C1053   1.408       .  A
C1053      C1054   1.409       .  A
C1053      H1057   1.083       .  S
C1054      O1058   1.371   1_556  S
O1056      H1060   0.992       .  S
O1058      H1059   0.992   1_554  S
C1061      C1062   1.405       .  A
C1061      C1066   1.408   1_655  A
C1062      C1063   1.405       .  A
C1062      H1067   1.084       .  S
C1063      C1064   1.413       .  A
C1063      O1068   1.371       .  S
C1064      C1065   1.409   1_655  A
C1065      C1066   1.401       .  A
C1065      H1069   1.083       .  S
O1068      H1072   0.992       .  S
O1070      H1071   0.992       .  S
