geometry optimzed in LAMMPS
_audit_creation_date              2020-11-30 
_audit_creation_method            'lammps2cif' 
_symmetry_space_group_name_H-M    'P1' 
_symmetry_Int_Tables_number       1 
_symmetry_cell_setting            triclinic 
loop_ 
_symmetry_equiv_pos_as_xyz 
  x,y,z 
_cell_length_a                    41.97669288264703 
_cell_length_b                    42.382885829228194 
_cell_length_c                    25.65674862598293 
_cell_angle_alpha                 89.83416816141597 
_cell_angle_beta                  89.30280550804247 
_cell_angle_gamma                 120.0350912611944 
loop_ 
_atom_site_label 
_atom_site_type_symbol 
_atom_site_fract_x 
_atom_site_fract_y 
_atom_site_fract_z 
_atom_site_charge 
N1          N  0.22628327  0.38098320  0.58138125    -0.27200
N2          N  0.19958973  0.34913624  0.56510369    -0.35060
C3          C  0.19774231  0.32272212  0.59686904     0.01140
C4          C  0.22483217  0.33910483  0.63412316     0.07160
C5          C  0.24216818  0.37584105  0.62293337    -0.05930
H6          H  0.17923044  0.29382241  0.59188650     0.07830
H7          H  0.26537661  0.39742529  0.64291564     0.09030
Cu8        Cu  0.16933166  0.34418052  0.49810679     0.44170
Cu9        Cu  0.24299094  0.43126535  0.54810002     0.41990
Cu10       Cu  0.19286919  0.43453698  0.44416485     0.43880
N11         N  0.14602424  0.35229994  0.43113732    -0.34590
N12         N  0.15415623  0.38504088  0.41397583    -0.28840
C13         C  0.13377224  0.38155293  0.37228463    -0.04940
C14         C  0.11191434  0.34502679  0.36182302     0.07270
C15         C  0.12032966  0.32704012  0.39974693     0.01070
H16         H  0.13483478  0.40416371  0.35104567     0.08720
H17         H  0.10795427  0.29787794  0.40506970     0.07800
N18         N  0.23613264  0.48139507  0.47409039    -0.36040
N19         N  0.25559204  0.47998726  0.51299866    -0.28220
C20         C  0.28162710  0.51400406  0.52516201    -0.03460
C21         C  0.27866632  0.53808346  0.49171084     0.05150
C22         C  0.24908121  0.51641499  0.46031760     0.03250
H23         H  0.30073858  0.52079006  0.55678719     0.08350
H24         H  0.23663524  0.52529293  0.43147364     0.07190
N25         N  0.34702226  0.25194193  0.89796908    -0.27200
N26         N  0.31487510  0.23106770  0.92161179    -0.35060
C27         C  0.28832293  0.23241321  0.89428162     0.01140
C28         C  0.30485870  0.25577606  0.85224913     0.07160
C29         C  0.34190071  0.26758758  0.85587182    -0.05930
H30         H  0.25960886  0.21925526  0.90597445     0.07830
H31         H  0.36381215  0.28720360  0.83070759     0.09030
Cu32       Cu  0.30942654  0.20603728  0.99352419     0.44170
Cu33       Cu  0.39795606  0.26295244  0.92469521     0.41990
Cu34       Cu  0.39833325  0.24274610  0.05687448     0.43880
N35         N  0.31677165  0.18775387  0.06513094    -0.34590
N36         N  0.34937392  0.20098925  0.08688166    -0.28840
C37         C  0.34621157  0.18087797  0.12911556    -0.04940
C38         C  0.30988163  0.15406808  0.13488521     0.07270
C39         C  0.29174748  0.15921734  0.09396453     0.01070
H40         H  0.36899434  0.18481514  0.15294135     0.08720
H41         H  0.26310170  0.14219082  0.08404607     0.07800
N42         N  0.44633211  0.27453606  0.01492913    -0.36040
N43         N  0.44645284  0.27955843  0.96426163    -0.28220
C44         C  0.48150158  0.29791334  0.94674098    -0.03460
C45         C  0.50489244  0.30500489  0.98864458     0.05150
C46         C  0.48115741  0.29023042  0.03141539     0.03250
H47         H  0.48928526  0.30550497  0.90634576     0.08350
H48         H  0.48801870  0.29077106  0.07174999     0.07190
N49         N  0.23361754  0.38174953  0.91671935    -0.27200
N50         N  0.20468549  0.35054000  0.93168222    -0.35060
C51         C  0.20121477  0.32408581  0.89897738     0.01140
C52         C  0.22951412  0.33976252  0.86217432     0.07160
C53         C  0.24933994  0.37614834  0.87480327    -0.05930
H54         H  0.18025534  0.29564079  0.90241353     0.07830
H55         H  0.27360352  0.39723022  0.85485705     0.09030
Cu56       Cu  0.17277270  0.34686586  0.99673231     0.44170
Cu57       Cu  0.25095105  0.43199214  0.94983461     0.41990
Cu58       Cu  0.19038861  0.43767153  0.03869744     0.43880
N59         N  0.14839998  0.35601962  0.06180424    -0.34590
N60         N  0.15422791  0.38861106  0.07531524    -0.28840
C61         C  0.13364462  0.38513204  0.11770451    -0.04940
C62         C  0.11411300  0.34879964  0.13202696     0.07270
C63         C  0.12407844  0.33099415  0.09586116     0.01070
H64         H  0.13282898  0.40752125  0.13658236     0.08720
H65         H  0.11367450  0.30196853  0.09354099     0.07800
N66         N  0.23413859  0.48375872  0.00495303    -0.36040
N67         N  0.25822511  0.48149477  0.97416649    -0.28220
C68         C  0.28478344  0.51519912  0.96018358    -0.03460
C69         C  0.27666595  0.54034172  0.98217281     0.05150
C70         C  0.24436906  0.51907456  0.01082120     0.03250
H71         H  0.30825548  0.52035995  0.93650111     0.08350
H72         H  0.22936792  0.52859905  0.03434196     0.07190
N73         N  0.84265622  0.19500724  0.58785116    -0.27200
N74         N  0.86761744  0.18800945  0.56769777    -0.35060
C75         C  0.86928882  0.16270102  0.59779827     0.01140
C76         C  0.84376294  0.15320756  0.63809386     0.07160
C77         C  0.82749605  0.17415026  0.63042958    -0.05930
H78         H  0.88640630  0.15087043  0.58949964     0.07830
H79         H  0.80551474  0.17368012  0.65352972     0.09030
Cu80       Cu  0.89530954  0.21094958  0.49761133     0.44170
Cu81       Cu  0.82745122  0.23074589  0.55748624     0.41990
Cu82       Cu  0.86685997  0.27189828  0.43744078     0.43880
N83         N  0.91690532  0.23943518  0.42780817    -0.34590
N84         N  0.90694085  0.26194300  0.40769918    -0.28840
C85         C  0.92793581  0.27854670  0.36549804    -0.04940
C86         C  0.95197175  0.26568318  0.35800785     0.07270
C87         C  0.94424531  0.24074817  0.39797392     0.01070
H88         H  0.92624883  0.29907519  0.34246781     0.08720
H89         H  0.95856823  0.22606501  0.40624757     0.07800
N90         N  0.82839458  0.28095193  0.47499450    -0.36040
N91         N  0.81407165  0.26596680  0.52072949    -0.28220
C92         C  0.79181295  0.27824194  0.53751752    -0.03460
C93         C  0.79160284  0.30169904  0.49992846     0.05150
C94         C  0.81551693  0.30306615  0.46109052     0.03250
H95         H  0.77846550  0.27193588  0.57539814     0.08350
H96         H  0.82355850  0.31953305  0.42587744     0.07190
N97         N  0.91620398  0.27129284  0.07841586    -0.27200
N98         N  0.92269831  0.24525347  0.06276879    -0.35060
C99         C  0.94731872  0.24417956  0.09505577     0.01140
C100        C  0.95681725  0.27106089  0.13209132     0.07160
C101        C  0.93664108  0.28760042  0.12021412    -0.05930
H102        H  0.95831395  0.22603491  0.09085628     0.07830
H103        H  0.93699762  0.31019636  0.14027763     0.09030
Cu104      Cu  0.89912911  0.21384951  0.99657341     0.44170
Cu105      Cu  0.88048187  0.28542376  0.04460997     0.41990
Cu106      Cu  0.82997613  0.23188919  0.94043684     0.43880
N107        N  0.86897400  0.18816018  0.93023957    -0.34590
N108        N  0.84329819  0.19447156  0.91205183    -0.28840
C109        C  0.82722888  0.17297676  0.87120033    -0.04940
C110        C  0.84358008  0.15223338  0.86245791     0.07270
C111        C  0.87012938  0.16250331  0.90043127     0.01070
H112        H  0.80503825  0.17245193  0.84945836     0.08720
H113        H  0.88802286  0.15139071  0.90694378     0.07800
N114        N  0.82268883  0.27339789  0.96829953    -0.36040
N115        N  0.84196787  0.29398618  0.00735956    -0.28220
C116        C  0.83156132  0.31872842  0.01701598    -0.03460
C117        C  0.80478602  0.31367043  0.98162133     0.05150
C118        C  0.79946324  0.28432934  0.95181421     0.03250
H119        H  0.84249233  0.33876709  0.04760996     0.08350
H120        H  0.77953082  0.27114558  0.92147300     0.07190
C121        C  0.72306260  0.38992307  0.98041795     0.03220
C122        C  0.68467532  0.37098631  0.97636461    -0.12930
C123        C  0.66491883  0.38967553  0.97783751     0.00720
C124        C  0.68417439  0.42777324  0.98284676    -0.11460
C125        C  0.72274915  0.44704746  0.98509165     0.03210
C126        C  0.74205389  0.42799295  0.98355411    -0.10880
H127        H  0.67007429  0.34155420  0.97305957     0.08810
H128        H  0.66927338  0.44241878  0.98572813     0.06330
H129        H  0.77183554  0.44276804  0.98558441     0.06180
N130        N  0.84270849  0.75785824  0.07845671    -0.27200
N131        N  0.86991595  0.79031217  0.06357525    -0.35060
C132        C  0.87175299  0.81548717  0.09740512     0.01140
C133        C  0.84427030  0.79790874  0.13484450     0.07160
C134        C  0.82649198  0.76158762  0.12148732    -0.05930
H135        H  0.89089603  0.84446131  0.09405044     0.07830
H136        H  0.80313005  0.73935643  0.14142375     0.09030
Cu137      Cu  0.90246939  0.79913129  0.99700658     0.44170
Cu138      Cu  0.82752993  0.70841508  0.04304897     0.41990
Cu139      Cu  0.89087091  0.71311309  0.95039567     0.43880
N140        N  0.92929120  0.79472544  0.93088479    -0.34590
N141        N  0.92505815  0.76304394  0.91586397    -0.28840
C142        C  0.94621996  0.76812700  0.87372270    -0.04940
C143        C  0.96481411  0.80470053  0.86104509     0.07270
C144        C  0.95349646  0.82102516  0.89798737     0.01070
H145        H  0.94827621  0.74663248  0.85410171     0.08720
H146        H  0.96299180  0.84980489  0.90172845     0.07800
N147        N  0.84846204  0.66389380  0.97717000    -0.36040
N148        N  0.82295556  0.66184318  0.00962674    -0.28220
C149        C  0.79736349  0.62656777  0.01682415    -0.03460
C150        C  0.80722162  0.60518280  0.98722240     0.05150
C151        C  0.84034549  0.63017276  0.96340123     0.03250
H152        H  0.77327742  0.61715350  0.04177968     0.08350
H153        H  0.85793626  0.62492289  0.93852754     0.07190
O154        O  0.07211701  0.35023306  0.30291582    -0.72850
O155        O  0.99650370  0.31429942  0.19238019    -0.73840
O156        O  0.99438983  0.31182325  0.30147614    -0.62450
O157        O  0.07396617  0.35269193  0.19330692    -0.70870
O158        O  0.07425809  0.30047274  0.19036423    -0.70420
O159        O  0.99419900  0.25931440  0.30184058    -0.61670
O160        O  0.99599921  0.26168856  0.18952593    -0.74180
O161        O  0.07251037  0.29803878  0.30308418    -0.72960
Cu162      Cu  0.03429002  0.33396363  0.24764938     1.04560
Cu163      Cu  0.03428223  0.27790981  0.24618329     1.04330
C164        C  0.08416242  0.33011123  0.32079240     0.93340
C165        C  0.98438261  0.28264278  0.17323233     0.92480
C166        C  0.98164382  0.27939202  0.31873359     0.84630
C167        C  0.08628567  0.33311688  0.17401963     0.90900
N168        N  0.17339921  0.88866719  0.58964202    -0.27200
N169        N  0.16381023  0.91093330  0.56773536    -0.35060
C170        C  0.13646565  0.91056263  0.59639287     0.01140
C171        C  0.12830948  0.88644540  0.63756474     0.07160
C172        C  0.15212348  0.87310883  0.63197339    -0.05930
H173        H  0.12230227  0.92512298  0.58635881     0.07830
H174        H  0.15328845  0.85278250  0.65620793     0.09030
Cu175      Cu  0.18566721  0.93725881  0.49697893     0.44170
Cu176      Cu  0.21292938  0.87735283  0.56125385     0.41990
Cu177      Cu  0.25100282  0.91348321  0.43792659     0.43880
N178        N  0.21340432  0.95830730  0.42665224    -0.34590
N179        N  0.23759201  0.95014913  0.40673294    -0.28840
C180        C  0.25317742  0.97053727  0.36386719    -0.04940
C181        C  0.23783379  0.99223463  0.35590565     0.07270
C182        C  0.21255094  0.98379024  0.39615067     0.01070
H183        H  0.27469799  0.97009131  0.34079381     0.08720
H184        H  0.19615307  0.99645264  0.40414527     0.07800
N185        N  0.26336553  0.87857354  0.47722269    -0.36040
N186        N  0.24998679  0.86590527  0.52424838    -0.28220
C187        C  0.26250184  0.84389327  0.54004279    -0.03460
C188        C  0.28504297  0.84271768  0.50100281     0.05150
C189        C  0.28447011  0.86473137  0.46138886     0.03250
H190        H  0.25510492  0.82917100  0.57679329     0.08350
H191        H  0.29676122  0.86910631  0.42296971     0.07190
C192        C  0.35195562  0.75104607  0.51489421     0.03220
C193        C  0.33508862  0.71326714  0.50588108    -0.12930
C194        C  0.35482572  0.69475201  0.51140074     0.00720
C195        C  0.39280783  0.71453536  0.51915339    -0.11460
C196        C  0.41060002  0.75225982  0.52604523     0.03210
C197        C  0.38988215  0.76991244  0.52640988    -0.10880
H198        H  0.30705598  0.69798920  0.49336002     0.08810
H199        H  0.40854624  0.70062854  0.51833777     0.06330
H200        H  0.40407933  0.79895888  0.53349513     0.06180
N201        N  0.72616301  0.87938513  0.41776637    -0.27200
N202        N  0.75885029  0.90460890  0.43435936    -0.35060
C203        C  0.78501182  0.90504370  0.40257215     0.01140
C204        C  0.76769802  0.87855349  0.36497417     0.07160
C205        C  0.73060734  0.86299732  0.37599636    -0.05930
H206        H  0.81434604  0.92226101  0.40770632     0.07830
H207        H  0.70827376  0.84081214  0.35551926     0.09030
Cu208      Cu  0.76578830  0.93512617  0.50180187     0.44170
Cu209      Cu  0.67547124  0.86563031  0.45055363     0.41990
Cu210      Cu  0.67643403  0.91249269  0.56133393     0.43880
N211        N  0.75966471  0.95889730  0.56997304    -0.34590
N212        N  0.72700939  0.95055158  0.58953728    -0.28840
C213        C  0.73139527  0.97137594  0.63097547    -0.04940
C214        C  0.76847530  0.99387053  0.63875987     0.07270
C215        C  0.78586921  0.98528156  0.59954897     0.01070
H216        H  0.70898903  0.97050128  0.65348082     0.08720
H217        H  0.81517325  0.99815470  0.59190198     0.07800
N218        N  0.62762045  0.87376816  0.52940359    -0.36040
N219        N  0.62714009  0.85588412  0.48719671    -0.28220
C220        C  0.59199361  0.83244007  0.47488200    -0.03460
C221        C  0.56931993  0.83619466  0.51098199     0.05150
C222        C  0.59286351  0.86230917  0.54538469     0.03250
H223        H  0.58369878  0.81360095  0.44279629     0.08350
H224        H  0.58528751  0.87230815  0.57934385     0.07190
N225        N  0.34653060  0.25402545  0.58717778    -0.27200
N226        N  0.31459786  0.23109448  0.56601966    -0.35060
C227        C  0.28736307  0.23172100  0.59378242     0.01140
C228        C  0.30335317  0.25665364  0.63347235     0.07160
C229        C  0.34065093  0.27011110  0.62797709    -0.05930
H230        H  0.25845769  0.21647194  0.58438187     0.07830
H231        H  0.36220023  0.29066748  0.65158192     0.09030
Cu232      Cu  0.31067152  0.20291216  0.49792618     0.44170
Cu233      Cu  0.39811418  0.26535455  0.56172553     0.41990
Cu234      Cu  0.40198255  0.22141352  0.45034351     0.43880
N235        N  0.31956167  0.18130932  0.43022514    -0.34590
N236        N  0.35253430  0.18796624  0.41449058    -0.28840
C237        C  0.34908518  0.16865141  0.37160419    -0.04940
C238        C  0.31235088  0.14895995  0.35928196     0.07270
C239        C  0.29422398  0.15761403  0.39705930     0.01070
H240        H  0.37174731  0.16835068  0.35150812     0.08720
H241        H  0.26482423  0.14644273  0.40140112     0.07800
N242        N  0.44918227  0.25733561  0.48906240    -0.36040
N243        N  0.44776575  0.27433785  0.53122804    -0.28220
C244        C  0.48224042  0.29787563  0.54632484    -0.03460
C245        C  0.50641919  0.29509218  0.51213553     0.05150
C246        C  0.48458601  0.26939812  0.47602442     0.03250
H247        H  0.48918145  0.31646396  0.57858215     0.08350
H248        H  0.49374628  0.26124026  0.44169229     0.07190
C249        C  0.72284658  0.39166276  0.50873145     0.03220
C250        C  0.68679154  0.37536770  0.49044821    -0.12930
C251        C  0.66470572  0.39070228  0.50078232     0.00720
C252        C  0.68155503  0.42676400  0.51874414    -0.11460
C253        C  0.71981065  0.44717553  0.52877377     0.03530
C254        C  0.73786362  0.42633464  0.53136587    -0.10880
H255        H  0.67452330  0.34878859  0.47249815     0.08810
H256        H  0.66344504  0.43709899  0.52533191     0.06330
H257        H  0.76360202  0.43674102  0.55114757     0.06180
N258        N  0.85108977  0.75846910  0.41364731    -0.27200
N259        N  0.87546530  0.79122810  0.43071713    -0.35060
C260        C  0.87451725  0.81666176  0.40003739     0.01140
C261        C  0.84797894  0.79895637  0.36269809     0.07160
C262        C  0.83375895  0.76227868  0.37259281    -0.05930
H263        H  0.89084353  0.84577248  0.40582389     0.07830
H264        H  0.81198203  0.73982589  0.35174593     0.09030
Cu265      Cu  0.90696763  0.80050624  0.49737454     0.44170
Cu266      Cu  0.83975848  0.70847414  0.44483806     0.41990
Cu267      Cu  0.88851422  0.71482757  0.55573687     0.43880
N268        N  0.93181378  0.79695534  0.56543268    -0.34590
N269        N  0.92475253  0.76510000  0.58472370    -0.28840
C270        C  0.94557558  0.77029174  0.62632843    -0.04940
C271        C  0.96680385  0.80714833  0.63447428     0.07270
C272        C  0.95744980  0.82358475  0.59532668     0.01070
H273        H  0.94563129  0.74860444  0.64861723     0.08720
H274        H  0.96934233  0.85249444  0.58791740     0.07800
N275        N  0.85111665  0.66514049  0.52628254    -0.36040
N276        N  0.83239792  0.66221117  0.48394907    -0.28220
C277        C  0.80887459  0.62664761  0.47537213    -0.03460
C278        C  0.81351976  0.60641297  0.51410444     0.05150
C279        C  0.84017547  0.63184310  0.54611862     0.03250
H280        H  0.78918286  0.61628234  0.44419769     0.08350
H281        H  0.84963655  0.62684682  0.58253362     0.07190
N282        N  0.23352112  0.94877082  0.08535329    -0.27200
N283        N  0.20947381  0.95706931  0.06604709    -0.35060
C284        C  0.20981875  0.98381545  0.09483125     0.01140
C285        C  0.23574853  0.99298846  0.13323128     0.07160
C286        C  0.25018355  0.97036011  0.12599802    -0.05930
H287        H  0.19357421  0.99658930  0.08700721     0.07830
H288        H  0.27153007  0.96977287  0.14848467     0.09030
Cu289      Cu  0.17984690  0.93420708  0.99878114     0.44170
Cu290      Cu  0.24461246  0.90930044  0.05763344     0.41990
Cu291      Cu  0.19898897  0.86579896  0.94429748     0.43880
N292        N  0.15706551  0.90626747  0.93037018    -0.34590
N293        N  0.16410170  0.88120149  0.91208820    -0.28840
C294        C  0.14395571  0.86618908  0.86973977    -0.04940
C295        C  0.12335327  0.88259886  0.86032951     0.07270
C296        C  0.13230953  0.90809733  0.89929383     0.01070
H297        H  0.14375044  0.84424320  0.84800775     0.08720
H298        H  0.12059322  0.92542771  0.90592458     0.07800
N299        N  0.23447760  0.85278530  0.98040826    -0.36040
N300        N  0.25162877  0.86889272  0.02351983    -0.28220
C301        C  0.27357311  0.85569081  0.03740537    -0.03460
C302        C  0.26964101  0.82980843  0.00126891     0.05150
C303        C  0.24500657  0.82900598  0.96534254     0.03250
H304        H  0.29198178  0.86520141  0.07011685     0.08350
H305        H  0.23596090  0.81286092  0.93034282     0.07190
C306        C  0.35397169  0.75650303  0.98073258     0.03220
C307        C  0.33454703  0.71825142  0.97811120    -0.12930
C308        C  0.35325869  0.69860573  0.97924953     0.00720
C309        C  0.39180229  0.71744492  0.97992105    -0.11460
C310        C  0.41155943  0.75559425  0.98150174     0.03210
C311        C  0.39255598  0.77498666  0.98343214    -0.10880
H312        H  0.30477189  0.70374044  0.97623749     0.08810
H313        H  0.40641831  0.70239224  0.98026206     0.06330
H314        H  0.40780012  0.80425036  0.98825430     0.06180
N315        N  0.72702727  0.87302075  0.07873724    -0.27200
N316        N  0.75930537  0.90128550  0.06523155    -0.35060
C317        C  0.78469822  0.90373655  0.09936750     0.01140
C318        C  0.76724546  0.87556615  0.13553889     0.07160
C319        C  0.73091896  0.85680918  0.12107814    -0.05930
H320        H  0.81369983  0.92385931  0.09722214     0.07830
H321        H  0.70875534  0.83279107  0.13981634     0.09030
Cu322      Cu  0.76641609  0.93405089  0.00009669     0.44170
Cu323      Cu  0.67746192  0.85648939  0.04295678     0.41990
Cu324      Cu  0.67645572  0.91730285  0.95364089     0.43880
N325        N  0.75952872  0.95968605  0.93500326    -0.34590
N326        N  0.72687826  0.95380676  0.92033591    -0.28840
C327        C  0.73109066  0.97469847  0.87866945    -0.04940
C328        C  0.76799885  0.99467481  0.86580568     0.07270
C329        C  0.78546784  0.98456151  0.90222211     0.01070
H330        H  0.70870805  0.97536280  0.85918231     0.08720
H331        H  0.81476137  0.99514301  0.90552470     0.07800
N332        N  0.62822565  0.87365197  0.98232175    -0.36040
N333        N  0.62874317  0.84947020  0.01409366    -0.28220
C334        C  0.59404818  0.82287389  0.02432692    -0.03460
C335        C  0.57021514  0.83112544  0.99848503     0.05150
C336        C  0.59311167  0.86341647  0.97172876     0.03250
H337        H  0.58725982  0.79910083  0.04766171     0.08350
H338        H  0.58481626  0.87824015  0.94610024     0.07190
O339        O  0.85374169  0.11336360  0.69355337    -0.72850
O340        O  0.81654350  0.03515462  0.80701539    -0.73840
O341        O  0.81698802  0.03546967  0.69413511    -0.62450
O342        O  0.85361026  0.11290949  0.80609687    -0.70870
O343        O  0.79952638  0.11047830  0.80512212    -0.70420
O344        O  0.76331965  0.03389452  0.69698463    -0.61670
O345        O  0.76307309  0.03397515  0.80603611    -0.74180
O346        O  0.79951966  0.11064355  0.69643221    -0.72960
Cu347      Cu  0.83731191  0.07428475  0.75012134     1.04560
Cu348      Cu  0.77966452  0.07214446  0.75112666     1.04330
C349        C  0.83207030  0.12432474  0.67771574     0.93340
C350        C  0.78360773  0.02256425  0.82436692     0.92480
C351        C  0.78401629  0.02252802  0.67827947     0.84630
C352        C  0.83194848  0.12379776  0.82287810     0.90900
O353        O  0.80089204  0.79397149  0.19729693    -0.72850
O354        O  0.76361325  0.83366867  0.30719906    -0.73840
O355        O  0.76290015  0.83269170  0.19778787    -0.62450
O356        O  0.80207806  0.79476413  0.30647638    -0.70870
O357        O  0.85524725  0.84696646  0.30557745    -0.70420
O358        O  0.81556472  0.88532916  0.19375191    -0.61670
O359        O  0.81634403  0.88627007  0.30658059    -0.74180
O360        O  0.85409561  0.84606809  0.19299901    -0.72960
Cu361      Cu  0.78068224  0.81214542  0.25239018     1.04560
Cu362      Cu  0.83735280  0.86817220  0.24973908     1.04330
C363        C  0.83287815  0.81358291  0.17713222     0.93340
C364        C  0.78362290  0.86584270  0.32446038     0.92480
C365        C  0.78285862  0.86436843  0.17779822     0.84630
C366        C  0.83467138  0.81453725  0.32317305     0.90900
O367        O  0.26402656  0.10918360  0.30252027    -0.72850
O368        O  0.22658674  0.03262024  0.18976369    -0.73840
O369        O  0.22774177  0.03186864  0.30146581    -0.62450
O370        O  0.26251081  0.11019720  0.19063097    -0.70870
O371        O  0.31688083  0.11314405  0.18922805    -0.70420
O372        O  0.28179336  0.03424793  0.29635974    -0.61670
O373        O  0.28114207  0.03599461  0.18778670    -0.74180
O374        O  0.31773321  0.11085989  0.29794065    -0.72960
Cu375      Cu  0.24316190  0.07087987  0.24612748     1.04560
Cu376      Cu  0.30115608  0.07367687  0.24261363     1.04330
C377        C  0.29705544  0.12178216  0.31794811     0.93340
C378        C  0.24823301  0.02204779  0.17179775     0.92480
C379        C  0.24949038  0.02076570  0.31605987     0.84630
C380        C  0.29552028  0.12428122  0.17317832     0.90900
O381        O  0.08492877  0.84090691  0.69343238    -0.72850
O382        O  0.00574789  0.80172656  0.80098545    -0.73840
O383        O  0.00755436  0.80335431  0.69224286    -0.62450
O384        O  0.08279651  0.83932004  0.80165175    -0.70870
O385        O  0.08375233  0.89218018  0.80415087    -0.70420
O386        O  0.00705151  0.85550415  0.69090562    -0.61670
O387        O  0.00526751  0.85385351  0.80363791    -0.74180
O388        O  0.08568579  0.89369306  0.69191444    -0.72960
Cu389      Cu  0.04518022  0.81966787  0.74698622     1.04560
Cu390      Cu  0.04543132  0.87586531  0.74761199     1.04330
C391        C  0.09811983  0.87328621  0.67588706     0.93340
C392        C  0.99320439  0.82118185  0.81993056     0.92480
C393        C  0.99527392  0.82318463  0.67415213     0.84630
C394        C  0.09527024  0.87111740  0.82029142     0.90900
O395        O  0.25379228  0.24989557  0.68895761    -0.72850
O396        O  0.21756596  0.29073064  0.80399481    -0.73840
O397        O  0.21575381  0.29019266  0.69115154    -0.62450
O398        O  0.25510713  0.25006508  0.80092059    -0.70870
O399        O  0.30879352  0.30168979  0.79637563    -0.70420
O400        O  0.26953963  0.34171446  0.69109656    -0.61670
O401        O  0.27183754  0.34165980  0.80004471    -0.74180
O402        O  0.30693329  0.30215441  0.68844710    -0.72960
Cu403      Cu  0.23340433  0.26823873  0.74633607     1.04560
Cu404      Cu  0.29087770  0.32346219  0.74388402     1.04330
C405        C  0.28674053  0.26996243  0.67162660     0.93340
C406        C  0.23972934  0.32291702  0.82014672     0.92480
C407        C  0.23696086  0.32259208  0.67394837     0.84630
C408        C  0.28853464  0.26965981  0.81499689     0.90900
C409        C  0.51357282  0.80781946  0.94709472    -0.05690
C410        C  0.52931959  0.80982506  0.99593704     0.00240
C411        C  0.50579811  0.79370623  0.04027144    -0.08340
C412        C  0.46745115  0.77643321  0.03365880    -0.05710
C413        C  0.45210607  0.77487994  0.98495987     0.00220
C414        C  0.47527449  0.79040488  0.94074588    -0.08240
C415        C  0.45950843  0.78830614  0.88713104     0.62130
H416        H  0.53165912  0.82000137  0.91356465     0.12830
H417        H  0.44888571  0.76365714  0.06659854     0.12840
C418        C  0.52030819  0.79468087  0.09454904     0.62370
F419        F  0.48676155  0.80383354  0.84894798    -0.22800
F420        F  0.44007245  0.80663531  0.88707625    -0.20130
F421        F  0.43617278  0.75227858  0.87433991    -0.19810
F422        F  0.54825404  0.82944467  0.10590481    -0.19860
F423        F  0.53312594  0.77042087  0.09764221    -0.20180
F424        F  0.49307212  0.78470338  0.13244056    -0.22850
C425        C  0.31492466  0.81919202  0.95433886    -0.05690
C426        C  0.29094224  0.81081529  0.99720541     0.00240
C427        C  0.28687471  0.78397196  0.03374240    -0.08340
C428        C  0.30848466  0.76740812  0.02724405    -0.05710
C429        C  0.33330805  0.77641333  0.98505078     0.00220
C430        C  0.33619953  0.80231283  0.94730929    -0.08240
C431        C  0.36132298  0.81224728  0.89969828     0.62130
H432        H  0.31719113  0.83956228  0.92658894     0.12830
H433        H  0.30613615  0.74710373  0.05515470     0.12840
C434        C  0.25883372  0.77193165  0.07808883     0.62370
F435        F  0.35317414  0.83090192  0.86269706    -0.22800
F436        F  0.35761192  0.78116555  0.87654979    -0.20130
F437        F  0.39735443  0.83448298  0.91431165    -0.19810
F438        F  0.22432760  0.76081054  0.05827728    -0.19860
F439        F  0.26819872  0.80049803  0.11184520    -0.20180
F440        F  0.25693101  0.74311055  0.10626820    -0.22850
C441        C  0.78134515  0.50548993  0.52507673    -0.05690
C442        C  0.74249752  0.48915416  0.53197587     0.00240
C443        C  0.72853250  0.51407425  0.53679186    -0.08340
C444        C  0.75303446  0.55184166  0.52996200    -0.05710
C445        C  0.79083255  0.56661011  0.52323428     0.00220
C446        C  0.80566042  0.54334107  0.52315094    -0.08240
C447        C  0.84700346  0.55828373  0.51906614     0.62130
H448        H  0.79357748  0.48885845  0.51865289     0.12830
H449        H  0.74279347  0.57077298  0.52978142     0.12840
C450        C  0.68871382  0.50333458  0.54786818     0.62370
F451        F  0.85573715  0.53086526  0.51608988    -0.22800
F452        F  0.86388403  0.57860161  0.56266586    -0.20130
F453        F  0.86122235  0.58007675  0.47502285    -0.19810
F454        F  0.67441584  0.47836311  0.58855621    -0.19860
F455        F  0.66863922  0.49000406  0.50295915    -0.20180
F456        F  0.68509832  0.53280720  0.56279083    -0.22850
C457        C  0.56084360  0.35345258  0.48627310    -0.05690
C458        C  0.54669594  0.31894446  0.50926568     0.00240
C459        C  0.57089486  0.30750366  0.52735861    -0.08340
C460        C  0.60895138  0.33199682  0.52384430    -0.05710
C461        C  0.62369959  0.36665177  0.49978305     0.00220
C462        C  0.59891062  0.37695634  0.47883348    -0.08240
C463        C  0.61013414  0.41109132  0.44661099     0.62130
H464        H  0.54173154  0.36147153  0.47176809     0.12830
H465        H  0.62759662  0.32414248  0.54042211     0.12840
C466        C  0.55643073  0.26962599  0.55038924     0.62370
F467        F  0.58939255  0.40190189  0.40186928    -0.22800
F468        F  0.64664642  0.42874807  0.43096158    -0.20130
F469        F  0.60312069  0.43460891  0.47523075    -0.19810
F470        F  0.53644265  0.24376885  0.51336135    -0.19860
F471        F  0.53390601  0.26472285  0.59305366    -0.20180
F472        F  0.58461120  0.26400292  0.56638432    -0.22850
C473        C  0.51204708  0.79479990  0.55970583    -0.05690
C474        C  0.52867182  0.81546903  0.51434178     0.00240
C475        C  0.50643619  0.81706251  0.47452572    -0.08340
C476        C  0.46798542  0.79602363  0.48031438    -0.05710
C477        C  0.45133131  0.77417750  0.52469207     0.00220
C478        C  0.47349994  0.77405375  0.56572044    -0.08240
C479        C  0.45657493  0.75282272  0.61587095     0.62130
H480        H  0.52961790  0.79470760  0.59020762     0.12830
H481        H  0.45042101  0.79617976  0.44983673     0.12840
C482        C  0.52307296  0.84178717  0.42707503     0.62370
F483        F  0.48295079  0.76009198  0.65305577    -0.22800
F484        F  0.43855850  0.71588541  0.60616036    -0.20130
F485        F  0.43176991  0.76212866  0.63630317    -0.19810
F486        F  0.54149221  0.82934320  0.39601193    -0.19860
F487        F  0.54740492  0.87692975  0.44275693    -0.20180
F488        F  0.49644195  0.84294762  0.39714527    -0.22850
C489        C  0.35222742  0.80731687  0.48564904    -0.05690
C490        C  0.33207264  0.77222794  0.50852443     0.00240
C491        C  0.29555349  0.76052317  0.52723745    -0.08340
C492        C  0.28111878  0.78393126  0.52088845    -0.05710
C493        C  0.30215258  0.81937040  0.50069379     0.00220
C494        C  0.33890492  0.83184562  0.48430094    -0.08240
C495        C  0.36512896  0.87133701  0.46880647     0.62130
H496        H  0.37938244  0.81609677  0.46957481     0.12830
H497        H  0.25297203  0.77479734  0.53292020     0.12840
C498        C  0.27156672  0.72476203  0.55612617     0.62370
F499        F  0.40140616  0.87927921  0.46824714    -0.22800
F500        F  0.36231636  0.89447117  0.50413411    -0.20130
F501        F  0.35714505  0.87824050  0.41950579    -0.19810
F502        F  0.29234993  0.71801419  0.59074458    -0.19860
F503        F  0.25478302  0.69657992  0.52111178    -0.20180
F504        F  0.24389816  0.72563601  0.58494130    -0.22850
C505        C  0.76243611  0.50598882  0.94111725    -0.05690
C506        C  0.74343711  0.48734823  0.98647334     0.00240
C507        C  0.74603418  0.50705733  0.03202493    -0.08340
C508        C  0.76764857  0.54531198  0.03032816    -0.05710
C509        C  0.78672211  0.56445784  0.98478081     0.00220
C510        C  0.78396728  0.54426508  0.93895430    -0.08240
C511        C  0.80312958  0.56191538  0.88757252     0.62130
H512        H  0.76042444  0.48997495  0.90717413     0.12830
H513        H  0.77001565  0.56061777  0.06516471     0.12840
C514        C  0.72665830  0.48769350  0.08240697     0.62370
F515        F  0.78904786  0.53777354  0.84658030    -0.22800
F516        F  0.84011913  0.57306510  0.89060084    -0.20130
F517        F  0.79853752  0.59122571  0.87572866    -0.19810
F518        F  0.73730093  0.46277559  0.09612792    -0.19860
F519        F  0.68898678  0.46963896  0.07596629    -0.20180
F520        F  0.73497555  0.51179218  0.12316078    -0.22850
C521        C  0.76497689  0.33330148  0.02504517    -0.05690
C522        C  0.78401633  0.33332016  0.97973779     0.00240
C523        C  0.78381902  0.35284030  0.93488294    -0.08340
C524        C  0.76331913  0.37083315  0.93657720    -0.05710
C525        C  0.74353233  0.36996254  0.98146201     0.00220
C526        C  0.74460978  0.35139213  0.02675050    -0.08240
C527        C  0.72492957  0.35133770  0.07684097     0.62130
H528        H  0.76598761  0.31867021  0.05908514     0.12830
H529        H  0.76247669  0.38575545  0.90277594     0.12840
C530        C  0.80612851  0.35581534  0.88618537     0.62370
F531        F  0.73180328  0.33396995  0.11727235    -0.22800
F532        F  0.68736979  0.33342026  0.06932455    -0.20130
F533        F  0.73669555  0.38680145  0.09169391    -0.19810
F534        F  0.79146531  0.32227663  0.86250251    -0.19860
F535        F  0.84225750  0.36769270  0.89919893    -0.20180
F536        F  0.80615449  0.38028593  0.85029354    -0.22850
C537        C  0.79482241  0.36134878  0.49075570    -0.05690
C538        C  0.77352161  0.32407451  0.50284905     0.00240
C539        C  0.73575995  0.30914542  0.51552420    -0.08340
C540        C  0.72157590  0.33280782  0.52011744    -0.05710
C541        C  0.74254771  0.37026092  0.50753981     0.00220
C542        C  0.77992248  0.38466598  0.49115612    -0.08240
C543        C  0.80484182  0.42400960  0.47381840     0.62130
H544        H  0.82363539  0.37226263  0.48074300     0.12830
H545        H  0.69333202  0.32176164  0.53324949     0.12840
C546        C  0.70971958  0.26831320  0.52122943     0.62370
F547        F  0.83335259  0.42743806  0.44205966    -0.22800
F548        F  0.82021834  0.44550773  0.51700715    -0.20130
F549        F  0.78566641  0.43674178  0.44556393    -0.19810
F550        F  0.71529011  0.25593867  0.56813388    -0.19860
F551        F  0.71544916  0.25016234  0.48069087    -0.20180
F552        F  0.67322800  0.25961174  0.51995823    -0.22850
C553        C  0.29693853  0.59980352  0.02418033    -0.05690
C554        C  0.29780182  0.58109960  0.97938035     0.00240
C555        C  0.31683465  0.60174351  0.93389175    -0.08340
C556        C  0.33421668  0.64005803  0.93563757    -0.05710
C557        C  0.33279649  0.65825102  0.98023880     0.00220
C558        C  0.31401873  0.63801863  0.02544965    -0.08240
C559        C  0.31255595  0.65672713  0.07513422     0.62130
H560        H  0.28278674  0.58415259  0.05878366     0.12830
H561        H  0.34949202  0.65640742  0.90201545     0.12840
C562        C  0.31931875  0.58446232  0.88333592     0.62370
F563        F  0.29578091  0.63217383  0.11593211    -0.22800
F564        F  0.29274074  0.67424409  0.06691623    -0.20130
F565        F  0.34783926  0.68196156  0.08999240    -0.19810
F566        F  0.28526351  0.55555352  0.87059382    -0.19860
F567        F  0.34451537  0.57277547  0.88843871    -0.20180
F568        F  0.33108958  0.60904838  0.84203782    -0.22850
C569        C  0.60700223  0.34253041  0.01897768    -0.05690
C570        C  0.62404922  0.36859779  0.97914255     0.00240
C571        C  0.60211471  0.37216253  0.94073733    -0.08340
C572        C  0.56355181  0.35151653  0.94642827    -0.05710
C573        C  0.54613411  0.32559081  0.98687214     0.00220
C574        C  0.56859588  0.31974942  0.02241997    -0.08240
C575        C  0.55357719  0.28926982  0.06299397     0.62130
H576        H  0.62432666  0.33975580  0.04745102     0.12830
H577        H  0.54674391  0.35575196  0.91885300     0.12840
C578        C  0.61904404  0.39613768  0.89260238     0.62370
F579        F  0.58018504  0.28090833  0.07761302    -0.22800
F580        F  0.52456237  0.25769681  0.04345161    -0.20130
F581        F  0.54251653  0.30003555  0.10714098    -0.19810
F582        F  0.64450897  0.38867346  0.86963365    -0.19860
F583        F  0.63618515  0.43247641  0.90587173    -0.20180
F584        F  0.59274319  0.39007260  0.85583310    -0.22850
C585        C  0.30167238  0.59365852  0.54421687    -0.05690
C586        C  0.29915750  0.57833539  0.49501257     0.00240
C587        C  0.31729622  0.60145481  0.45149641    -0.08340
C588        C  0.33479494  0.63947254  0.45816809    -0.05710
C589        C  0.33599386  0.65462430  0.50707637     0.00220
C590        C  0.32048583  0.63154597  0.55125113    -0.08240
C591        C  0.32417928  0.64685810  0.60562653     0.62130
H592        H  0.28857858  0.57556458  0.57728626     0.12830
H593        H  0.34798325  0.65775621  0.42530705     0.12840
C594        C  0.31998923  0.58630914  0.39912424     0.62370
F595        F  0.30830766  0.61963868  0.64328935    -0.22800
F596        F  0.30705212  0.66731645  0.60828939    -0.20130
F597        F  0.36095239  0.66865283  0.61719979    -0.19810
F598        F  0.28609904  0.56939391  0.37558618    -0.19860
F599        F  0.33184123  0.56144133  0.40595713    -0.20180
F600        F  0.34478047  0.61350603  0.36574604    -0.22850
loop_ 
_geom_bond_atom_site_label_1 
_geom_bond_atom_site_label_2 
_geom_bond_distance 
_geom_bond_site_symmetry_2 
_ccdc_geom_bond_type 
N1            N2   1.324       .  A
N1            C5   1.338       .  A
N1           Cu9   2.059       .  S
N2            C3   1.353       .  A
N2           Cu8   2.098       .  S
C3            C4   1.389       .  A
C3            H6   1.082       .  S
C4            C5   1.376       .  A
C4          C407   1.469       .  S
C5            H7   1.082       .  S
Cu8          N11   2.098       .  S
Cu9          N19   2.059       .  S
Cu10         N12   2.066       .  S
Cu10         N18   2.065       .  S
N11          N12   1.325       .  A
N11          C15   1.352       .  A
N12          C13   1.340       .  A
C13          C14   1.377       .  A
C13          H16   1.082       .  S
C14          C15   1.388       .  A
C14         C164   1.470       .  S
C15          H17   1.082       .  S
N18          N19   1.317       .  A
N18          C22   1.345       .  A
N19          C20   1.343       .  A
C20          C21   1.385       .  A
C20          H23   1.082       .  S
C21          C22   1.386       .  A
C21         C586   1.480       .  S
C22          H24   1.080       .  S
N25          N26   1.324       .  A
N25          C29   1.340       .  A
N25         Cu33   2.073       .  S
N26          C27   1.349       .  A
N26         Cu32   2.078       .  S
C27          C28   1.383       .  A
C27          H30   1.082       .  S
C28          C29   1.379       .  A
C28         C408   1.465       .  S
C29          H31   1.082       .  S
Cu32         N35   2.077   1_556  S
Cu33         N43   2.071       .  S
Cu34         N36   2.064       .  S
Cu34         N42   2.063       .  S
N35          N36   1.323       .  A
N35          C39   1.348       .  A
N36          C37   1.340       .  A
C37          C38   1.378       .  A
C37          H40   1.082       .  S
C38          C39   1.383       .  A
C38         C380   1.463       .  S
C39          H41   1.082       .  S
N42          N43   1.316   1_554  A
N42          C46   1.342       .  A
N43          C44   1.345       .  A
C44          C45   1.394       .  A
C44          H47   1.081       .  S
C45          C46   1.391   1_556  A
C45         C573   1.499       .  S
C46          H48   1.075       .  S
N49          N50   1.323       .  A
N49          C53   1.338       .  A
N49         Cu57   2.064       .  S
N50          C51   1.352       .  A
N50         Cu56   2.083       .  S
C51          C52   1.387       .  A
C51          H54   1.082       .  S
C52          C53   1.379       .  A
C52         C406   1.468       .  S
C53          H55   1.082       .  S
Cu56         N59   2.084   1_556  S
Cu57         N67   2.063       .  S
Cu58         N60   2.075       .  S
Cu58         N66   2.073       .  S
N59          N60   1.325       .  A
N59          C63   1.349       .  A
N60          C61   1.342       .  A
C61          C62   1.380       .  A
C61          H64   1.082       .  S
C62          C63   1.384       .  A
C62         C167   1.468       .  S
C63          H65   1.082       .  S
N66          N67   1.317   1_554  A
N66          C70   1.344       .  A
N67          C68   1.344       .  A
C68          C69   1.390       .  A
C68          H71   1.076       .  S
C69          C70   1.393   1_556  A
C69         C554   1.497       .  S
C70          H72   1.082       .  S
N73          N74   1.324       .  A
N73          C77   1.339       .  A
N73         Cu81   2.069       .  S
N74          C75   1.350       .  A
N74         Cu80   2.083       .  S
C75          C76   1.385       .  A
C75          H78   1.082       .  S
C76          C77   1.379       .  A
C76         C349   1.467       .  S
C77          H79   1.082       .  S
Cu80         N83   2.083       .  S
Cu81         N91   2.068       .  S
Cu82         N84   2.067       .  S
Cu82         N90   2.066       .  S
N83          N84   1.324       .  A
N83          C87   1.349       .  A
N84          C85   1.340       .  A
C85          C86   1.378       .  A
C85          H88   1.082       .  S
C86          C87   1.384       .  A
C86         C166   1.465       .  S
C87          H89   1.082       .  S
N90          N91   1.318       .  A
N90          C94   1.345       .  A
N91          C92   1.344       .  A
C92          C93   1.386       .  A
C92          H95   1.079       .  S
C93          C94   1.386       .  A
C93         C538   1.483       .  S
C94          H96   1.082       .  S
N97          N98   1.325       .  A
N97         C101   1.340       .  A
N97        Cu105   2.071       .  S
N98          C99   1.351       .  A
N98        Cu104   2.091   1_554  S
C99         C100   1.386       .  A
C99         H102   1.082       .  S
C100        C101   1.379       .  A
C100        C165   1.469       .  S
C101        H103   1.082       .  S
Cu104       N107   2.090       .  S
Cu105       N115   2.069       .  S
Cu106       N108   2.060       .  S
Cu106       N114   2.059       .  S
N107        N108   1.323       .  A
N107        C111   1.351       .  A
N108        C109   1.338       .  A
C109        C110   1.377       .  A
C109        H112   1.082       .  S
C110        C111   1.387       .  A
C110        C352   1.467       .  S
C111        H113   1.082       .  S
N114        N115   1.319   1_556  A
N114        C118   1.344       .  A
N115        C116   1.345       .  A
C116        C117   1.385   1_554  A
C116        H119   1.082       .  S
C117        C118   1.383       .  A
C117        C522   1.478       .  S
C118        H120   1.081       .  S
C121        C122   1.401       .  A
C121        C126   1.400       .  A
C121        C525   1.477       .  S
C122        C123   1.405       .  A
C122        H127   1.084       .  S
C123        C124   1.405       .  A
C123        C570   1.485       .  S
C124        C125   1.404       .  A
C124        H128   1.082       .  S
C125        C126   1.402       .  A
C125        C506   1.480       .  S
C126        H129   1.084       .  S
N130        N131   1.325       .  A
N130        C134   1.341       .  A
N130       Cu138   2.076       .  S
N131        C132   1.350       .  A
N131       Cu137   2.086   1_554  S
C132        C133   1.385       .  A
C132        H135   1.082       .  S
C133        C134   1.380       .  A
C133        C363   1.469       .  S
C134        H136   1.082       .  S
Cu137       N140   2.085       .  S
Cu138       N148   2.074       .  S
Cu139       N141   2.059       .  S
Cu139       N147   2.058       .  S
N140        N141   1.322       .  A
N140        C144   1.352       .  A
N141        C142   1.337       .  A
C142        C143   1.378       .  A
C142        H145   1.082       .  S
C143        C144   1.387       .  A
C143        C392   1.467       .  S
C144        H146   1.082       .  S
N147        N148   1.316   1_556  A
N147        C151   1.342       .  A
N148        C149   1.345       .  A
C149        C150   1.393   1_554  A
C149        H152   1.082       .  S
C150        C151   1.389       .  A
C150        C509   1.496       .  S
C151        H153   1.075       .  S
O154       Cu162   1.993       .  S
O154        C164   1.276       .  A
O155       Cu162   1.990   1_655  S
O155        C165   1.276       .  A
O156       Cu162   1.989   1_655  S
O156        C166   1.275       .  A
O157       Cu162   1.990       .  S
O157        C167   1.275       .  A
O158       Cu163   2.027       .  S
O158        C167   1.280       .  A
O159       Cu163   2.025   1_655  S
O159        C166   1.279       .  A
O160       Cu163   2.031   1_655  S
O160        C165   1.280       .  A
O161       Cu163   2.032       .  S
O161        C164   1.279       .  A
Cu162      Cu163   2.376       .  S
N168        N169   1.323       .  A
N168        C172   1.340       .  A
N168       Cu176   2.070       .  S
N169        C170   1.349       .  A
N169       Cu175   2.075       .  S
C170        C171   1.383       .  A
C170        H173   1.082       .  S
C171        C172   1.379       .  A
C171        C391   1.464       .  S
C172        H174   1.082       .  S
Cu175       N178   2.075       .  S
Cu176       N186   2.069       .  S
Cu177       N179   2.062       .  S
Cu177       N185   2.061       .  S
N178        N179   1.323       .  A
N178        C182   1.347       .  A
N179        C180   1.340       .  A
C180        C181   1.377       .  A
C180        H183   1.082       .  S
C181        C182   1.383       .  A
C181        C379   1.461   1_565  S
C182        H184   1.082       .  S
N185        N186   1.318       .  A
N185        C189   1.344       .  A
N186        C187   1.343       .  A
C187        C188   1.388       .  A
C187        H190   1.082       .  S
C188        C189   1.386       .  A
C188        C493   1.485       .  S
C189        H191   1.078       .  S
C192        C193   1.411       .  A
C192        C197   1.414       .  A
C192        C490   1.511       .  S
C193        C194   1.405       .  A
C193        H198   1.075       .  S
C194        C195   1.398       .  A
C194        C589   1.479       .  S
C195        C196   1.398       .  A
C195        H199   1.083       .  S
C196        C197   1.403       .  A
C196        C477   1.482       .  S
C197        H200   1.083       .  S
N201        N202   1.325       .  A
N201        C205   1.340       .  A
N201       Cu209   2.071       .  S
N202        C203   1.353       .  A
N202       Cu208   2.098       .  S
C203        C204   1.388       .  A
C203        H206   1.082       .  S
C204        C205   1.378       .  A
C204        C364   1.471       .  S
C205        H207   1.082       .  S
Cu208       N211   2.097       .  S
Cu209       N219   2.070       .  S
Cu210       N212   2.061       .  S
Cu210       N218   2.060       .  S
N211        N212   1.324       .  A
N211        C215   1.353       .  A
N212        C213   1.338       .  A
C213        C214   1.376       .  A
C213        H216   1.082       .  S
C214        C215   1.389       .  A
C214        C351   1.469   1_565  S
C215        H217   1.082       .  S
N218        N219   1.318       .  A
N218        C222   1.344       .  A
N219        C220   1.345       .  A
C220        C221   1.386       .  A
C220        H223   1.081       .  S
C221        C222   1.383       .  A
C221        C474   1.479       .  S
C222        H224   1.082       .  S
N225        N226   1.324       .  A
N225        C229   1.337       .  A
N225       Cu233   2.066       .  S
N226        C227   1.351       .  A
N226       Cu232   2.080       .  S
C227        C228   1.385       .  A
C227        H230   1.082       .  S
C228        C229   1.377       .  A
C228        C405   1.464       .  S
C229        H231   1.082       .  S
Cu232       N235   2.081       .  S
Cu233       N243   2.065       .  S
Cu234       N236   2.067       .  S
Cu234       N242   2.066       .  S
N235        N236   1.324       .  A
N235        C239   1.350       .  A
N236        C237   1.339       .  A
C237        C238   1.378       .  A
C237        H240   1.082       .  S
C238        C239   1.384       .  A
C238        C377   1.465       .  S
C239        H241   1.082       .  S
N242        N243   1.319       .  A
N242        C246   1.345       .  A
N243        C244   1.345       .  A
C244        C245   1.383       .  A
C244        H247   1.082       .  S
C245        C246   1.383       .  A
C245        C458   1.474       .  S
C246        H248   1.082       .  S
C249        C250   1.400       .  A
C249        C254   1.407       .  A
C249        C541   1.503       .  S
C250        C251   1.397       .  A
C250        H255   1.084       .  S
C251        C252   1.407       .  A
C251        C461   1.499       .  S
C252        C253   1.419       .  A
C252        H256   1.063       .  S
C253        C254   1.425       .  A
C253        C442   1.545       .  S
C254        H257   1.076       .  S
N258        N259   1.326       .  A
N258        C262   1.342       .  A
N258       Cu266   2.081       .  S
N259        C260   1.350       .  A
N259       Cu265   2.090       .  S
C260        C261   1.384       .  A
C260        H263   1.082       .  S
C261        C262   1.379       .  A
C261        C366   1.468       .  S
C262        H264   1.082       .  S
Cu265       N268   2.088       .  S
Cu266       N276   2.079       .  S
Cu267       N269   2.049       .  S
Cu267       N275   2.049       .  S
N268        N269   1.322       .  A
N268        C272   1.353       .  A
N269        C270   1.335       .  A
C270        C271   1.375       .  A
C270        H273   1.082       .  S
C271        C272   1.388       .  A
C271        C393   1.465       .  S
C272        H274   1.082       .  S
N275        N276   1.318       .  A
N275        C279   1.343       .  A
N276        C277   1.346       .  A
C277        C278   1.389       .  A
C277        H280   1.082       .  S
C278        C279   1.381       .  A
C278        C445   1.480       .  S
C279        H281   1.081       .  S
N282        N283   1.325       .  A
N282        C286   1.340       .  A
N282       Cu290   2.074       .  S
N283        C284   1.349       .  A
N283       Cu289   2.078   1_554  S
C284        C285   1.382       .  A
C284        H287   1.082       .  S
C285        C286   1.379       .  A
C285        C378   1.464   1_565  S
C286        H288   1.082       .  S
Cu289       N292   2.078       .  S
Cu290       N300   2.072       .  S
Cu291       N293   2.058       .  S
Cu291       N299   2.058       .  S
N292        N293   1.323       .  A
N292        C296   1.350       .  A
N293        C294   1.337       .  A
C294        C295   1.377       .  A
C294        H297   1.082       .  S
C295        C296   1.385       .  A
C295        C394   1.463       .  S
C296        H298   1.082       .  S
N299        N300   1.319   1_556  A
N299        C303   1.343       .  A
N300        C301   1.346       .  A
C301        C302   1.385       .  A
C301        H304   1.082       .  S
C302        C303   1.381   1_554  A
C302        C426   1.476   1_554  S
C303        H305   1.082       .  S
C306        C307   1.406       .  A
C306        C311   1.405       .  A
C306        C429   1.486       .  S
C307        C308   1.402       .  A
C307        H312   1.084       .  S
C308        C309   1.401       .  A
C308        C557   1.481       .  S
C309        C310   1.401       .  A
C309        H313   1.084       .  S
C310        C311   1.404       .  A
C310        C413   1.478       .  S
C311        H314   1.082       .  S
N315        N316   1.324       .  A
N315        C319   1.338       .  A
N315       Cu323   2.062       .  S
N316        C317   1.351       .  A
N316       Cu322   2.090       .  S
C317        C318   1.387       .  A
C317        H320   1.082       .  S
C318        C319   1.377       .  A
C318        C365   1.468       .  S
C319        H321   1.082       .  S
Cu322       N325   2.090   1_554  S
Cu323       N333   2.061       .  S
Cu324       N326   2.067       .  S
Cu324       N332   2.066       .  S
N325        N326   1.324       .  A
N325        C329   1.352       .  A
N326        C327   1.338       .  A
C327        C328   1.378       .  A
C327        H330   1.082       .  S
C328        C329   1.387       .  A
C328        C350   1.469   1_565  S
C329        H331   1.082       .  S
N332        N333   1.317   1_556  A
N332        C336   1.343       .  A
N333        C334   1.344       .  A
C334        C335   1.388   1_554  A
C334        H337   1.077       .  S
C335        C336   1.389       .  A
C335        C410   1.489       .  S
C336        H338   1.082       .  S
O339       Cu347   2.036       .  S
O339        C349   1.280       .  A
O340       Cu347   2.037       .  S
O340        C350   1.280       .  A
O341       Cu347   2.034       .  S
O341        C351   1.279       .  A
O342       Cu347   2.031       .  S
O342        C352   1.279       .  A
O343       Cu348   1.985       .  S
O343        C352   1.275       .  A
O344       Cu348   1.988       .  S
O344        C351   1.276       .  A
O345       Cu348   1.980       .  S
O345        C350   1.274       .  A
O346       Cu348   1.981       .  S
O346        C349   1.274       .  A
Cu347      Cu348   2.376       .  S
O353       Cu361   1.986       .  S
O353        C363   1.275       .  A
O354       Cu361   1.990       .  S
O354        C364   1.276       .  A
O355       Cu361   1.987       .  S
O355        C365   1.276       .  A
O356       Cu361   1.990       .  S
O356        C366   1.275       .  A
O357       Cu362   2.030       .  S
O357        C366   1.280       .  A
O358       Cu362   2.030       .  S
O358        C365   1.279       .  A
O359       Cu362   2.036       .  S
O359        C364   1.280       .  A
O360       Cu362   2.033       .  S
O360        C363   1.280       .  A
Cu361      Cu362   2.375       .  S
O367       Cu375   2.029       .  S
O367        C377   1.280       .  A
O368       Cu375   2.028       .  S
O368        C378   1.280       .  A
O369       Cu375   2.015       .  S
O369        C379   1.278       .  A
O370       Cu375   2.017       .  S
O370        C380   1.278       .  A
O371       Cu376   1.992       .  S
O371        C380   1.276       .  A
O372       Cu376   1.989       .  S
O372        C379   1.275       .  A
O373       Cu376   1.983       .  S
O373        C378   1.274       .  A
O374       Cu376   1.980       .  S
O374        C377   1.274       .  A
Cu375      Cu376   2.378       .  S
O381       Cu389   1.979       .  S
O381        C391   1.274       .  A
O382       Cu389   1.979       .  S
O382        C392   1.274   1_455  A
O383       Cu389   1.978       .  S
O383        C393   1.275   1_455  A
O384       Cu389   1.974       .  S
O384        C394   1.274       .  A
O385       Cu390   2.030       .  S
O385        C394   1.279       .  A
O386       Cu390   2.032       .  S
O386        C393   1.279   1_455  A
O387       Cu390   2.034       .  S
O387        C392   1.280   1_455  A
O388       Cu390   2.031       .  S
O388        C391   1.280       .  A
Cu389      Cu390   2.377       .  S
O395       Cu403   2.036       .  S
O395        C405   1.280       .  A
O396       Cu403   2.039       .  S
O396        C406   1.281       .  A
O397       Cu403   2.032       .  S
O397        C407   1.279       .  A
O398       Cu403   2.028       .  S
O398        C408   1.279       .  A
O399       Cu404   1.986       .  S
O399        C408   1.275       .  A
O400       Cu404   1.988       .  S
O400        C407   1.276       .  A
O401       Cu404   1.976       .  S
O401        C406   1.274       .  A
O402       Cu404   1.971       .  S
O402        C405   1.273       .  A
Cu403      Cu404   2.376       .  S
C409        C410   1.407       .  A
C409        C414   1.405       .  A
C409        H416   1.083       .  S
C410        C411   1.424   1_556  A
C411        C412   1.408       .  A
C411        C418   1.519       .  S
C412        C413   1.399   1_554  A
C412        H417   1.083       .  S
C413        C414   1.412       .  A
C414        C415   1.517       .  S
C415        F419   1.385       .  S
C415        F420   1.380       .  S
C415        F421   1.383       .  S
C418        F422   1.383       .  S
C418        F423   1.381       .  S
C418        F424   1.385       .  S
C425        C426   1.401       .  A
C425        C430   1.406       .  A
C425        H432   1.083       .  S
C426        C427   1.413   1_556  A
C427        C428   1.406       .  A
C427        C434   1.518       .  S
C428        C429   1.405   1_554  A
C428        H433   1.083       .  S
C429        C430   1.419       .  A
C430        C431   1.517       .  S
C431        F435   1.385       .  S
C431        F436   1.383       .  S
C431        F437   1.380       .  S
C434        F438   1.384       .  S
C434        F439   1.381       .  S
C434        F440   1.385       .  S
C441        C442   1.425       .  A
C441        C446   1.406       .  A
C441        H448   1.072       .  S
C442        C443   1.447       .  A
C443        C444   1.413       .  A
C443        C450   1.519       .  S
C444        C445   1.392       .  A
C444        H449   1.083       .  S
C445        C446   1.405       .  A
C446        C447   1.523       .  S
C447        F451   1.385       .  S
C447        F452   1.382       .  S
C447        F453   1.383       .  S
C450        F454   1.383       .  S
C450        F455   1.381       .  S
C450        F456   1.386       .  S
C457        C458   1.399       .  A
C457        C462   1.407       .  A
C457        H464   1.085       .  S
C458        C459   1.409       .  A
C459        C460   1.405       .  A
C459        C466   1.518       .  S
C460        C461   1.413       .  A
C460        H465   1.083       .  S
C461        C462   1.425       .  A
C462        C463   1.516       .  S
C463        F467   1.384       .  S
C463        F468   1.380       .  S
C463        F469   1.383       .  S
C466        F470   1.383       .  S
C466        F471   1.383       .  S
C466        F472   1.385       .  S
C473        C474   1.404       .  A
C473        C478   1.409       .  A
C473        H480   1.083       .  S
C474        C475   1.416       .  A
C475        C476   1.405       .  A
C475        C482   1.519       .  S
C476        C477   1.403       .  A
C476        H481   1.084       .  S
C477        C478   1.415       .  A
C478        C479   1.517       .  S
C479        F483   1.385       .  S
C479        F484   1.381       .  S
C479        F485   1.383       .  S
C482        F486   1.381       .  S
C482        F487   1.384       .  S
C482        F488   1.385       .  S
C489        C490   1.413       .  A
C489        C494   1.406       .  A
C489        H496   1.082       .  S
C490        C491   1.430       .  A
C491        C492   1.408       .  A
C491        C498   1.519       .  S
C492        C493   1.400       .  A
C492        H497   1.083       .  S
C493        C494   1.415       .  A
C494        C495   1.521       .  S
C495        F499   1.385       .  S
C495        F500   1.384       .  S
C495        F501   1.380       .  S
C498        F502   1.378       .  S
C498        F503   1.382       .  S
C498        F504   1.385       .  S
C505        C506   1.398       .  A
C505        C510   1.408       .  A
C505        H512   1.084       .  S
C506        C507   1.412   1_556  A
C507        C508   1.407       .  A
C507        C514   1.519       .  S
C508        C509   1.409   1_554  A
C508        H513   1.082       .  S
C509        C510   1.428       .  A
C510        C511   1.520       .  S
C511        F515   1.385       .  S
C511        F516   1.382       .  S
C511        F517   1.383       .  S
C514        F518   1.383       .  S
C514        F519   1.382       .  S
C514        F520   1.384       .  S
C521        C522   1.402   1_554  A
C521        C526   1.406       .  A
C521        H528   1.083       .  S
C522        C523   1.418       .  A
C523        C524   1.407       .  A
C523        C530   1.519       .  S
C524        C525   1.401       .  A
C524        H529   1.083       .  S
C525        C526   1.415   1_556  A
C526        C527   1.519       .  S
C527        F531   1.384       .  S
C527        F532   1.382       .  S
C527        F533   1.383       .  S
C530        F534   1.381       .  S
C530        F535   1.383       .  S
C530        F536   1.385       .  S
C537        C538   1.403       .  A
C537        C542   1.409       .  A
C537        H544   1.084       .  S
C538        C539   1.415       .  A
C539        C540   1.404       .  A
C539        C546   1.521       .  S
C540        C541   1.411       .  A
C540        H545   1.083       .  S
C541        C542   1.426       .  A
C542        C543   1.520       .  S
C543        F547   1.385       .  S
C543        F548   1.382       .  S
C543        F549   1.383       .  S
C546        F550   1.380       .  S
C546        F551   1.384       .  S
C546        F552   1.385       .  S
C553        C554   1.409   1_554  A
C553        C558   1.406       .  A
C553        H560   1.082       .  S
C554        C555   1.427       .  A
C555        C556   1.409       .  A
C555        C562   1.519       .  S
C556        C557   1.399       .  A
C556        H561   1.083       .  S
C557        C558   1.413   1_556  A
C558        C559   1.520       .  S
C559        F563   1.384       .  S
C559        F564   1.382       .  S
C559        F565   1.383       .  S
C562        F566   1.383       .  S
C562        F567   1.382       .  S
C562        F568   1.385       .  S
C569        C570   1.401   1_554  A
C569        C574   1.406       .  A
C569        H576   1.084       .  S
C570        C571   1.415       .  A
C571        C572   1.408       .  A
C571        C578   1.520       .  S
C572        C573   1.410       .  A
C572        H577   1.081       .  S
C573        C574   1.427   1_556  A
C574        C575   1.520       .  S
C575        F579   1.385       .  S
C575        F580   1.383       .  S
C575        F581   1.382       .  S
C578        F582   1.384       .  S
C578        F583   1.380       .  S
C578        F584   1.385       .  S
C585        C586   1.402       .  A
C585        C590   1.404       .  A
C585        H592   1.083       .  S
C586        C587   1.419       .  A
C587        C588   1.409       .  A
C587        C594   1.518       .  S
C588        C589   1.401       .  A
C588        H593   1.083       .  S
C589        C590   1.415       .  A
C590        C591   1.517       .  S
C591        F595   1.385       .  S
C591        F596   1.377       .  S
C591        F597   1.382       .  S
C594        F598   1.380       .  S
C594        F599   1.384       .  S
C594        F600   1.384       .  S
