geometry optimzed in LAMMPS
_audit_creation_date              2020-11-30 
_audit_creation_method            'lammps2cif' 
_symmetry_space_group_name_H-M    'P1' 
_symmetry_Int_Tables_number       1 
_symmetry_cell_setting            triclinic 
loop_ 
_symmetry_equiv_pos_as_xyz 
  x,y,z 
_cell_length_a                    46.06439975637287 
_cell_length_b                    46.53545344233588 
_cell_length_c                    46.53807840714176 
_cell_angle_alpha                 90.09227785426857 
_cell_angle_beta                  89.95854334310684 
_cell_angle_gamma                 90.00500539238898 
loop_ 
_atom_site_label 
_atom_site_type_symbol 
_atom_site_fract_x 
_atom_site_fract_y 
_atom_site_fract_z 
_atom_site_charge 
C1          C  0.70586418  0.70831136  0.74469419     0.03120
C2          C  0.69496438  0.73302959  0.73133693    -0.13030
C3          C  0.70834347  0.74383447  0.70653733     0.00620
C4          C  0.73279568  0.72990938  0.69521397    -0.11560
C5          C  0.74385205  0.70524616  0.70856435     0.03110
C6          C  0.73041254  0.69456040  0.73335731    -0.10980
H7          H  0.67508114  0.74276355  0.73915773     0.08710
H8          H  0.74218239  0.73727843  0.67516737     0.06240
H9          H  0.73792574  0.67459887  0.74274961     0.06080
C10         C  0.30081116  0.70857297  0.26171651     0.03120
C11         C  0.27662289  0.69516702  0.27415137    -0.13030
C12         C  0.26404649  0.70650510  0.29913923     0.00620
C13         C  0.27579990  0.73125686  0.31175374    -0.11560
C14         C  0.29998071  0.74471905  0.29940524     0.03110
C15         C  0.31228539  0.73349556  0.27424012    -0.10980
H16         H  0.26864929  0.67508075  0.26535242     0.08710
H17         H  0.26715772  0.73909216  0.33197460     0.06240
H18         H  0.33197975  0.74291234  0.26562427     0.06080
C19         C  0.70719061  0.26217297  0.70662454     0.03120
C20         C  0.73152293  0.27549971  0.69440982    -0.13030
C21         C  0.74294668  0.30056829  0.70670079     0.00620
C22         C  0.73006665  0.31221930  0.73139704    -0.11560
C23         C  0.70580070  0.29891641  0.74378994     0.03110
C24         C  0.69445897  0.27383772  0.73140987    -0.10980
H25         H  0.74047223  0.26736317  0.67444034     0.08710
H26         H  0.73794133  0.33241037  0.74004253     0.06240
H27         H  0.67471289  0.26447359  0.73996084     0.06080
C28         C  0.26449061  0.30047153  0.70668406     0.03120
C29         C  0.27605261  0.27538741  0.69453997    -0.13030
C30         C  0.29978617  0.26165645  0.70742863     0.00620
C31         C  0.31181952  0.27296911  0.73267720    -0.11560
C32         C  0.30060896  0.29828351  0.74467428     0.03110
C33         C  0.27688252  0.31193922  0.73168607    -0.10980
H34         H  0.26759354  0.26743307  0.67430205     0.08710
H35         H  0.33119721  0.26333966  0.74171429     0.06240
H36         H  0.26906095  0.33222846  0.74015472     0.06080
C37         C  0.30055573  0.70858095  0.74604207     0.03120
C38         C  0.27639156  0.69483454  0.73393236    -0.13030
C39         C  0.26372132  0.70559848  0.70880065     0.00620
C40         C  0.27532047  0.73019917  0.69576980    -0.11560
C41         C  0.29931324  0.74417889  0.70795385     0.03110
C42         C  0.31174538  0.73344886  0.73322060    -0.10980
H43         H  0.26862999  0.67481105  0.74300411     0.08710
H44         H  0.26663223  0.73758416  0.67543711     0.06240
H45         H  0.33137107  0.74316364  0.74165931     0.06080
C46         C  0.70614163  0.29924385  0.26197208     0.03120
C47         C  0.73021764  0.31199004  0.27528945    -0.13030
C48         C  0.74202938  0.29989151  0.30023473     0.00620
C49         C  0.72962889  0.27500401  0.31190248    -0.11560
C50         C  0.70557319  0.26214693  0.29865062     0.03110
C51         C  0.69401569  0.27418214  0.27355726    -0.10980
H52         H  0.73873495  0.33212118  0.26716784     0.08710
H53         H  0.73770110  0.26654984  0.33206552     0.06240
H54         H  0.67442485  0.26524011  0.26423559     0.06080
O55         O  0.47279360  0.47317096  0.17467495    -0.72950
O56         O  0.53241618  0.53315282  0.17456707    -0.73930
O57         O  0.53317031  0.47384113  0.17448958    -0.62550
O58         O  0.47201471  0.53233193  0.17476497    -0.70960
O59         O  0.47101615  0.53382562  0.22243122    -0.70520
O60         O  0.53456892  0.47240831  0.22213400    -0.61770
O61         O  0.53403719  0.53442829  0.22221242    -0.74280
O62         O  0.47153116  0.47190218  0.22233392    -0.73060
Cu63       Cu  0.50261965  0.50312706  0.17329238     1.04560
Cu64       Cu  0.50281235  0.50314296  0.22428725     1.04330
C65         C  0.46219622  0.46324225  0.19787172     0.93240
C66         C  0.54307291  0.54321431  0.19770213     0.92380
C67         C  0.54389778  0.46389268  0.19760972     0.84530
C68         C  0.46134797  0.54214981  0.19801110     0.90800
N69         N  0.33414625  0.32848678  0.19811369    -0.27300
N70         N  0.34705543  0.34345171  0.21878196    -0.35160
C71         C  0.33685185  0.33471499  0.24433807     0.01040
C72         C  0.31674827  0.31332623  0.23969183     0.07070
C73         C  0.31548818  0.30975569  0.21025608    -0.06030
H74         H  0.34352421  0.34344068  0.26486885     0.07730
H75         H  0.30180149  0.29494537  0.19850244     0.08930
Cu76       Cu  0.37760821  0.37593288  0.21376356     0.44170
Cu77       Cu  0.34062543  0.33422116  0.15402754     0.41990
Cu78       Cu  0.38252639  0.39593416  0.14089727     0.43880
N79         N  0.40524359  0.40844521  0.20030461    -0.34690
N80         N  0.40600307  0.41544189  0.17285593    -0.28940
C81         C  0.42593832  0.43580028  0.16871938    -0.05040
C82         C  0.43860482  0.44227364  0.19475973     0.07180
C83         C  0.42491719  0.42463205  0.21463453     0.00970
H84         H  0.43123364  0.44485218  0.14797658     0.08620
H85         H  0.42933822  0.42316834  0.23741248     0.07700
N86         N  0.36510136  0.37192276  0.10818334    -0.36130
N87         N  0.34999570  0.34820776  0.11243948    -0.28310
C88         C  0.34350857  0.33655281  0.08665386    -0.03550
C89         C  0.35530801  0.35394228  0.06539548     0.05060
C90         C  0.36868929  0.37615687  0.07991221     0.03150
H91         H  0.33159866  0.31674968  0.08360022     0.08260
H92         H  0.38072886  0.39381973  0.07060778     0.07090
N93         N  0.33497973  0.67812247  0.19798772    -0.27300
N94         N  0.34771291  0.66319122  0.21872958    -0.35160
C95         C  0.33741442  0.67206375  0.24422482     0.01040
C96         C  0.31741981  0.69350464  0.23945472     0.07070
C97         C  0.31631940  0.69696177  0.21001101    -0.06030
H98         H  0.34385783  0.66331552  0.26478736     0.07730
H99         H  0.30268121  0.71170433  0.19817028     0.08930
Cu100      Cu  0.37782148  0.63031314  0.21380601     0.44170
Cu101      Cu  0.34154459  0.67193803  0.15398476     0.41990
Cu102      Cu  0.38045419  0.60804882  0.14139588     0.43880
N103        N  0.40435813  0.59682417  0.20054916    -0.34690
N104        N  0.40416039  0.58885362  0.17333183    -0.28940
C105        C  0.42381888  0.56820749  0.16923054    -0.05040
C106        C  0.43729525  0.56259277  0.19505156     0.07180
C107        C  0.42437072  0.58101046  0.21476419     0.00970
H108        H  0.42857807  0.55857357  0.14859110     0.08620
H109        H  0.42972419  0.58343137  0.23726825     0.07700
N110        N  0.36412572  0.63249491  0.10851227    -0.36130
N111        N  0.35033649  0.65702770  0.11257757    -0.28310
C112        C  0.34452203  0.66875137  0.08671242    -0.03550
C113        C  0.35535415  0.65054223  0.06558691     0.05060
C114        C  0.36748310  0.62778536  0.08027368     0.03150
H115        H  0.33368894  0.68911760  0.08351535     0.08260
H116        H  0.37852766  0.60940115  0.07110707     0.07090
N117        N  0.67387273  0.33071650  0.19788223    -0.27300
N118        N  0.66060588  0.34544585  0.21852018    -0.35160
C119        C  0.67031149  0.33633994  0.24413215     0.01040
C120        C  0.69045600  0.31496121  0.23954784     0.07070
C121        C  0.69225456  0.31178524  0.21009445    -0.06030
H122        H  0.66316093  0.34470065  0.26466567     0.07730
H123        H  0.70600525  0.29698666  0.19838244     0.08930
Cu124      Cu  0.62979899  0.37772531  0.21340070     0.44170
Cu125      Cu  0.66788608  0.33659017  0.15374029     0.41990
Cu126      Cu  0.62241429  0.39555988  0.14015096     0.43880
N127        N  0.60119436  0.40940172  0.19983349    -0.34690
N128        N  0.59946017  0.41551380  0.17221759    -0.28940
C129        C  0.57927931  0.43563294  0.16811505    -0.05040
C130        C  0.56743613  0.44286932  0.19434824     0.07180
C131        C  0.58186210  0.42590324  0.21429355     0.00970
H132        H  0.57332308  0.44406315  0.14729592     0.08620
H133        H  0.57825548  0.42519585  0.23725534     0.07700
N134        N  0.64115546  0.37231081  0.10759267    -0.36130
N135        N  0.65792788  0.34975934  0.11201613    -0.28310
C136        C  0.66547181  0.33855164  0.08629956    -0.03550
C137        C  0.65257655  0.35499221  0.06493064     0.05060
C138        C  0.63745687  0.37619167  0.07928954     0.03150
H139        H  0.67887711  0.31968991  0.08336375     0.08260
H140        H  0.62429786  0.39296694  0.06985051     0.07090
N141        N  0.67263420  0.67685618  0.19801985    -0.27300
N142        N  0.65951415  0.66207963  0.21866975    -0.35160
C143        C  0.66954722  0.67101034  0.24424929     0.01040
C144        C  0.68974886  0.69231729  0.23961736     0.07070
C145        C  0.69124865  0.69563084  0.21018184    -0.06030
H146        H  0.66262079  0.66254613  0.26478666     0.07730
H147        H  0.70498603  0.71038262  0.19844149     0.08930
Cu148      Cu  0.62858168  0.62987585  0.21359323     0.44170
Cu149      Cu  0.66627275  0.67120395  0.15391683     0.41990
Cu150      Cu  0.62066674  0.61237926  0.14025405     0.43880
N151        N  0.59985749  0.59826641  0.19997471    -0.34690
N152        N  0.59788564  0.59234570  0.17231389    -0.28940
C153        C  0.57777242  0.57215467  0.16818579    -0.05040
C154        C  0.56623264  0.56464326  0.19444858     0.07180
C155        C  0.58075963  0.58154226  0.21444071     0.00970
H156        H  0.57174394  0.56376725  0.14733987     0.08620
H157        H  0.57745324  0.58197527  0.23745412     0.07700
N158        N  0.63938785  0.63556509  0.10773052    -0.36130
N159        N  0.65617238  0.65811199  0.11219793    -0.28310
C160        C  0.66370387  0.66930691  0.08651521    -0.03550
C161        C  0.65080232  0.65284891  0.06511437     0.05060
C162        C  0.63569007  0.63165226  0.07942286     0.03150
H163        H  0.67713136  0.68815392  0.08362564     0.08260
H164        H  0.62254758  0.61485100  0.06994862     0.07090
O165        O  0.47320802  0.47334185  0.83210290    -0.72950
O166        O  0.53254374  0.53364242  0.83192156    -0.73930
O167        O  0.47209097  0.53252931  0.83194777    -0.62550
O168        O  0.53358996  0.47432540  0.83207373    -0.70960
O169        O  0.53479451  0.47265238  0.78442556    -0.70520
O170        O  0.47102280  0.53385705  0.78428474    -0.61770
O171        O  0.53404120  0.53471621  0.78426954    -0.74280
O172        O  0.47179389  0.47192694  0.78445060    -0.73060
Cu173      Cu  0.50287974  0.50347803  0.83334567     1.04560
Cu174      Cu  0.50293422  0.50328848  0.78235177     1.04330
C175        C  0.46260821  0.46326424  0.80895188     0.93240
C176        C  0.54312273  0.54362845  0.80873364     0.92380
C177        C  0.46133346  0.54220852  0.80872763     0.84530
C178        C  0.54423424  0.46426721  0.80891421     0.90800
N179        N  0.33466561  0.32830045  0.80865982    -0.27300
N180        N  0.34738754  0.34344180  0.78803552    -0.35160
C181        C  0.33703389  0.33484183  0.76247694     0.01040
C182        C  0.31704535  0.31334083  0.76706916     0.07070
C183        C  0.31601032  0.30956515  0.79648024    -0.06030
H184        H  0.34355718  0.34370596  0.74197977     0.07730
H185        H  0.30246088  0.29462668  0.80819696     0.08930
Cu186      Cu  0.37798062  0.37590301  0.79311385     0.44170
Cu187      Cu  0.34133446  0.33385271  0.85275994     0.41990
Cu188      Cu  0.38371249  0.39525957  0.86611889     0.43880
N189        N  0.40586624  0.40822735  0.80662605    -0.34690
N190        N  0.40696590  0.41495319  0.83415113    -0.28940
C191        C  0.42690937  0.43531487  0.83828049    -0.05040
C192        C  0.43922426  0.44208093  0.81215296     0.07180
C193        C  0.42532827  0.42459444  0.79224111     0.00970
H194        H  0.43239707  0.44422479  0.85905832     0.08620
H195        H  0.42941295  0.42341506  0.76937515     0.07700
N196        N  0.36607350  0.37134789  0.89873344    -0.36130
N197        N  0.35077989  0.34775516  0.89440133    -0.28310
C198        C  0.34406279  0.33622025  0.92015693    -0.03550
C199        C  0.35590385  0.35356319  0.94147500     0.05060
C200        C  0.36954792  0.37562550  0.92701876     0.03150
H201        H  0.33191746  0.31655596  0.92315315     0.08260
H202        H  0.38163366  0.39324972  0.93637841     0.07090
N203        N  0.33497803  0.67818170  0.80948655    -0.27300
N204        N  0.34793639  0.66351709  0.78862781    -0.35160
C205        C  0.33770546  0.67254277  0.76320253     0.01040
C206        C  0.31751986  0.69379828  0.76815575     0.07070
C207        C  0.31620997  0.69696077  0.79762856    -0.06030
H208        H  0.34420897  0.66391922  0.74256667     0.07730
H209        H  0.30229893  0.71139861  0.80960112     0.08930
Cu210      Cu  0.37800375  0.63056786  0.79336496     0.44170
Cu211      Cu  0.34130970  0.67164290  0.85340298     0.41990
Cu212      Cu  0.37991370  0.60754829  0.86558994     0.43880
N213        N  0.40426967  0.59681829  0.80642116    -0.34690
N214        N  0.40378732  0.58856097  0.83352770    -0.28940
C215        C  0.42339453  0.56785578  0.83751074    -0.05040
C216        C  0.43713405  0.56250103  0.81173227     0.07180
C217        C  0.42441271  0.58112974  0.79216392     0.00970
H218        H  0.42798211  0.55804442  0.85806457     0.08620
H219        H  0.43004143  0.58382418  0.76975660     0.07700
N220        N  0.36361902  0.63197534  0.89863586    -0.36130
N221        N  0.34994932  0.65657646  0.89468635    -0.28310
C222        C  0.34423043  0.66834848  0.92058956    -0.03550
C223        C  0.35499626  0.65010601  0.94163198     0.05060
C224        C  0.36699496  0.62727206  0.92685801     0.03150
H225        H  0.33356057  0.68879912  0.92386461     0.08260
H226        H  0.37801890  0.60887675  0.93594993     0.07090
N227        N  0.67302050  0.32992464  0.80801767    -0.27300
N228        N  0.65935948  0.34429698  0.78744805    -0.35160
C229        C  0.66890571  0.33505746  0.76177280     0.01040
C230        C  0.68935960  0.31395646  0.76624517     0.07070
C231        C  0.69155925  0.31115137  0.79570344    -0.06030
H232        H  0.66167112  0.34335708  0.74128352     0.07730
H233        H  0.70582637  0.29684096  0.80734854     0.08930
Cu234      Cu  0.62876120  0.37677336  0.79282563     0.44170
Cu235      Cu  0.66750669  0.33627280  0.85219942     0.41990
Cu236      Cu  0.62263931  0.39576897  0.86604637     0.43880
N237        N  0.60093344  0.40916402  0.80649565    -0.34690
N238        N  0.59970325  0.41574657  0.83405571    -0.28940
C239        C  0.57989219  0.43624068  0.83820652    -0.05040
C240        C  0.56776797  0.44322749  0.81206860     0.07180
C241        C  0.58164314  0.42572391  0.79212920     0.00970
H242        H  0.57429124  0.44502211  0.85901634     0.08620
H243        H  0.57761175  0.42462540  0.76925514     0.07700
N244        N  0.64127823  0.37240986  0.89850182    -0.36130
N245        N  0.65783647  0.34970051  0.89398082    -0.28310
C246        C  0.66532825  0.33846257  0.91965391    -0.03550
C247        C  0.65262343  0.35504339  0.94109605     0.05060
C248        C  0.63766405  0.37635461  0.92682778     0.03150
H249        H  0.67854201  0.31946849  0.92251179     0.08260
H250        H  0.62464937  0.39323846  0.93634471     0.07090
N251        N  0.67194599  0.67801103  0.80851370    -0.27300
N252        N  0.65800968  0.66403682  0.78780163    -0.35160
C253        C  0.66776649  0.67327091  0.76223239     0.01040
C254        C  0.68866043  0.69391648  0.76694277     0.07070
C255        C  0.69092899  0.69643720  0.79641455    -0.06030
H256        H  0.66053086  0.66512020  0.74165464     0.07730
H257        H  0.70559757  0.71025270  0.80821792     0.08930
Cu258      Cu  0.62712698  0.63174450  0.79282409     0.44170
Cu259      Cu  0.66636900  0.67158487  0.85260175     0.41990
Cu260      Cu  0.62132437  0.61237689  0.86592040     0.43880
N261        N  0.59932061  0.59928396  0.80634985    -0.34690
N262        N  0.59817368  0.59266764  0.83388332    -0.28940
C263        C  0.57844692  0.57211098  0.83800452    -0.05040
C264        C  0.56630572  0.56506557  0.81187440     0.07180
C265        C  0.58008052  0.58262497  0.79195785     0.00970
H266        H  0.57302575  0.56321284  0.85878199     0.08620
H267        H  0.57608201  0.58362521  0.76907762     0.07700
N268        N  0.64003682  0.63542788  0.89859594    -0.36130
N269        N  0.65662545  0.65813028  0.89425548    -0.28310
C270        C  0.66403695  0.66932107  0.91999949    -0.03550
C271        C  0.65125966  0.65269621  0.94130661     0.05060
C272        C  0.63634436  0.63140835  0.92688341     0.03150
H273        H  0.67721869  0.68832771  0.92299285     0.08260
H274        H  0.62325908  0.61453141  0.93626430     0.07090
O275        O  0.53173419  0.17419681  0.53459051    -0.72950
O276        O  0.47464910  0.17450830  0.47233222    -0.73930
O277        O  0.53487969  0.17448787  0.47523679    -0.62550
O278        O  0.47166839  0.17420058  0.53157724    -0.70960
O279        O  0.47074797  0.22183807  0.53371952    -0.70520
O280        O  0.53567679  0.22213965  0.47359536    -0.61770
O281        O  0.47270648  0.22215235  0.47169453    -0.74280
O282        O  0.53363040  0.22183651  0.53573893    -0.73060
Cu283      Cu  0.50325409  0.17302334  0.50339690     1.04560
Cu284      Cu  0.50321357  0.22400906  0.50367782     1.04330
C285        C  0.54196721  0.19730940  0.54512447     0.93240
C286        C  0.46409268  0.19768509  0.46233152     0.92380
C287        C  0.54550938  0.19770386  0.46538461     0.84530
C288        C  0.46101243  0.19731407  0.54170372     0.90800
N289        N  0.33218745  0.19788705  0.33093224    -0.27300
N290        N  0.34555113  0.21857238  0.34549934    -0.35160
C291        C  0.33571842  0.24414586  0.33640731     0.01040
C292        C  0.31540147  0.23946851  0.31522704     0.07070
C293        C  0.31363325  0.21002078  0.31213476    -0.06030
H294        H  0.34298993  0.26471762  0.34455498     0.07730
H295        H  0.29986057  0.19825510  0.29741396     0.08930
Cu296      Cu  0.37699582  0.21367435  0.37722534     0.44170
Cu297      Cu  0.33835444  0.15377067  0.33650890     0.41990
Cu298      Cu  0.38735343  0.14026336  0.39229909     0.43880
N299        N  0.40713529  0.20006733  0.40747745    -0.34690
N300        N  0.41019083  0.17230316  0.41225686    -0.28940
C301        C  0.43076168  0.16812910  0.43193393    -0.05040
C302        C  0.44146695  0.19447185  0.44035487     0.07180
C303        C  0.42598333  0.21456501  0.42448319     0.00970
H304        H  0.43737538  0.14722121  0.43964795     0.08620
H305        H  0.42822768  0.23769639  0.42518190     0.07700
N306        N  0.36726300  0.10767258  0.37038936    -0.36130
N307        N  0.34903970  0.11205841  0.34898335    -0.28310
C308        C  0.34073531  0.08633000  0.33837717    -0.03550
C309        C  0.35465635  0.06500752  0.35403294     0.05060
C310        C  0.37115481  0.07938837  0.37415017     0.03150
H311        H  0.32613002  0.08335773  0.32042739     0.08260
H312        H  0.38537147  0.06998038  0.39007150     0.07090
N313        N  0.67254218  0.19807514  0.32947960    -0.27300
N314        N  0.65941157  0.21870997  0.34432405    -0.35160
C315        C  0.66924954  0.24431846  0.33531806     0.01040
C316        C  0.68933668  0.23973968  0.31387501     0.07070
C317        C  0.69098352  0.21028622  0.31057768    -0.06030
H318        H  0.66239158  0.26483849  0.34394240     0.07730
H319        H  0.70480345  0.19856988  0.29584383     0.08930
Cu320      Cu  0.62914393  0.21354555  0.37710649     0.44170
Cu321      Cu  0.66656805  0.15394694  0.33551001     0.41990
Cu322      Cu  0.62399391  0.14056920  0.39678644     0.43880
N323        N  0.60210344  0.20011445  0.41017989    -0.34690
N324        N  0.60138877  0.17265679  0.41715888    -0.28940
C325        C  0.58187727  0.16857937  0.43794623    -0.05040
C326        C  0.56938885  0.19465445  0.44468233     0.07180
C327        C  0.58275336  0.21448492  0.42673865     0.00970
H328        H  0.57651795  0.14781303  0.44690139     0.08620
H329        H  0.57817599  0.23723264  0.42519281     0.07700
N330        N  0.64141981  0.10793238  0.37260251    -0.36130
N331        N  0.65704415  0.11228962  0.34922598    -0.28310
C332        C  0.66387676  0.08654617  0.33764509    -0.03550
C333        C  0.65171768  0.06522388  0.35470062     0.05060
C334        C  0.63776014  0.07963644  0.37663880     0.03150
H335        H  0.67631028  0.08356255  0.31814197     0.08260
H336        H  0.62541916  0.07023924  0.39404954     0.07090
N337        N  0.33245515  0.19750973  0.67621267    -0.27300
N338        N  0.34513874  0.21809852  0.66099453    -0.35160
C339        C  0.33511499  0.24370362  0.66986872     0.01040
C340        C  0.31539243  0.23917260  0.69163288     0.07070
C341        C  0.31418882  0.20975467  0.69529360    -0.06030
H342        H  0.34183307  0.26420200  0.66115143     0.07730
H343        H  0.30091011  0.19808747  0.71050824     0.08930
Cu344      Cu  0.37566090  0.21292753  0.62845362     0.44170
Cu345      Cu  0.33900628  0.15339600  0.67066093     0.41990
Cu346      Cu  0.38355453  0.13961901  0.61082943     0.43880
N347        N  0.40388877  0.19941200  0.59638857    -0.34690
N348        N  0.40569140  0.17179064  0.59021836    -0.28940
C349        C  0.42563842  0.16775471  0.56982664    -0.05040
C350        C  0.43728792  0.19403286  0.56251990     0.07180
C351        C  0.42298152  0.21393152  0.57971557     0.00970
H352        H  0.43174769  0.14692972  0.56142942     0.08620
H353        H  0.42661103  0.23688737  0.58055869     0.07700
N354        N  0.36565845  0.10714746  0.63477206    -0.36130
N355        N  0.34920259  0.11166766  0.65756453    -0.28310
C356        C  0.34198527  0.08601139  0.66902093    -0.03550
C357        C  0.35477192  0.06457877  0.65250507     0.05060
C358        C  0.36949717  0.07882713  0.63100347     0.03150
H359        H  0.32880964  0.08316175  0.68805214     0.08260
H360        H  0.38239333  0.06930351  0.61403222     0.07090
N361        N  0.67643966  0.19784110  0.67390671    -0.27300
N362        N  0.66202001  0.21838800  0.66023655    -0.35160
C363        C  0.67103266  0.24407273  0.66992247     0.01040
C364        C  0.69195663  0.23963368  0.69055176     0.07070
C365        C  0.69496484  0.21018622  0.69265427    -0.06030
H366        H  0.66278265  0.26455214  0.66256352     0.07730
H367        H  0.70941489  0.19857160  0.70680669     0.08930
Cu368      Cu  0.62990646  0.21305411  0.62927208     0.44170
Cu369      Cu  0.67086156  0.15364950  0.66773710     0.41990
Cu370      Cu  0.61369791  0.13951121  0.61988989     0.43880
N371        N  0.59795736  0.19940292  0.60090728    -0.34690
N372        N  0.59244133  0.17168934  0.59844516    -0.28940
C373        C  0.57171420  0.16763635  0.57886732    -0.05040
C374        C  0.56348365  0.19399664  0.56814506     0.07180
C375        C  0.58052274  0.21396082  0.58259257     0.00970
H376        H  0.56360007  0.14677107  0.57249228     0.08620
H377        H  0.58063037  0.23702376  0.57969751     0.07700
N378        N  0.63659680  0.10714335  0.63934916    -0.36130
N379        N  0.65837667  0.11179110  0.65717812    -0.28310
C380        C  0.66876120  0.08617607  0.66606679    -0.03550
C381        C  0.65246544  0.06466693  0.65309664     0.05060
C382        C  0.63236588  0.07878480  0.63633285     0.03150
H383        H  0.68649653  0.08340148  0.68102630     0.08260
H384        H  0.61575968  0.06914226  0.62300148     0.07090
O385        O  0.53398522  0.78368119  0.53593428    -0.72950
O386        O  0.47290609  0.78384154  0.47199765    -0.73930
O387        O  0.53589086  0.78396153  0.47379446    -0.62550
O388        O  0.47104138  0.78357099  0.53405182    -0.70960
O389        O  0.47191918  0.83122097  0.53246094    -0.70520
O390        O  0.53495860  0.83159521  0.47594981    -0.61770
O391        O  0.47473936  0.83148066  0.47319891    -0.74280
O392        O  0.53198985  0.83132113  0.53533365    -0.73060
Cu393      Cu  0.50348150  0.78174541  0.50391603     1.04560
Cu394      Cu  0.50342098  0.83272710  0.50422360     1.04330
C395        C  0.54231006  0.80814650  0.54557144     0.93240
C396        C  0.46424223  0.80836843  0.46291275     0.92380
C397        C  0.54561152  0.80848955  0.46579795     0.84530
C398        C  0.46128280  0.80801558  0.54232594     0.90800
N399        N  0.33246266  0.80843401  0.33143105    -0.27300
N400        N  0.34566622  0.78770805  0.34600525    -0.35160
C401        C  0.33574216  0.76217216  0.33680616     0.01040
C402        C  0.31553033  0.76694434  0.31555488     0.07070
C403        C  0.31393617  0.79638807  0.31252223    -0.06030
H404        H  0.34292387  0.74156862  0.34487924     0.07730
H405        H  0.30033723  0.80821209  0.29773008     0.08930
Cu406      Cu  0.37710439  0.79262522  0.37776125     0.44170
Cu407      Cu  0.33886080  0.85247974  0.33707875     0.41990
Cu408      Cu  0.38805558  0.86621463  0.39272162     0.43880
N409        N  0.40734843  0.80625919  0.40796213    -0.34690
N410        N  0.41062547  0.83402480  0.41271655    -0.28940
C411        C  0.43120229  0.83810633  0.43243130    -0.05040
C412        C  0.44168215  0.81170955  0.44088773     0.07180
C413        C  0.42606180  0.79168451  0.42499789     0.00970
H414        H  0.43797671  0.85898892  0.44014830     0.08620
H415        H  0.42810421  0.76853796  0.42572590     0.07700
N416        N  0.36790688  0.89873251  0.37078390    -0.36130
N417        N  0.34960350  0.89420112  0.34945968    -0.28310
C418        C  0.34117986  0.91983812  0.33883428    -0.03550
C419        C  0.35509043  0.94128175  0.35438507     0.05060
C420        C  0.37172788  0.92705656  0.37446912     0.03150
H421        H  0.32647634  0.92266572  0.32094959     0.08260
H422        H  0.38595890  0.93659676  0.39033020     0.07090
N423        N  0.67318732  0.80849551  0.33037031    -0.27300
N424        N  0.66046981  0.78784907  0.34548154    -0.35160
C425        C  0.67047817  0.76227393  0.33648834     0.01040
C426        C  0.69023586  0.76689725  0.31476976     0.07070
C427        C  0.69148946  0.79633083  0.31127573    -0.06030
H428        H  0.66381704  0.74174347  0.34517277     0.07730
H429        H  0.70486751  0.80806639  0.29619829     0.08930
Cu430      Cu  0.63015596  0.79297878  0.37823889     0.44170
Cu431      Cu  0.66671606  0.85258433  0.33614575     0.41990
Cu432      Cu  0.62325782  0.86621621  0.39681632     0.43880
N433        N  0.60242830  0.80644682  0.41077385    -0.34690
N434        N  0.60100508  0.83400877  0.41731221    -0.28940
C435        C  0.58124842  0.83800778  0.43790221    -0.05040
C436        C  0.56933807  0.81177090  0.44496270     0.07180
C437        C  0.58329316  0.79193583  0.42741003     0.00970
H438        H  0.57540594  0.85879525  0.44657317     0.08620
H439        H  0.57934799  0.76904392  0.42626132     0.07700
N440        N  0.64086102  0.89875468  0.37270203    -0.36130
N441        N  0.65681792  0.89427675  0.34955650    -0.28310
C442        C  0.66380198  0.91995107  0.33800017    -0.03550
C443        C  0.65140676  0.94136983  0.35482889     0.05060
C444        C  0.63714751  0.92707477  0.37661704     0.03150
H445        H  0.67654366  0.92282253  0.31868500     0.08260
H446        H  0.62461382  0.93656881  0.39386803     0.07090
N447        N  0.33193219  0.80792415  0.67611761    -0.27300
N448        N  0.34444056  0.78719806  0.66087094    -0.35160
C449        C  0.33424987  0.76168845  0.66979696     0.01040
C450        C  0.31459267  0.76644356  0.69159979     0.07070
C451        C  0.31365228  0.79587488  0.69526179    -0.06030
H452        H  0.34093887  0.74109785  0.66120978     0.07730
H453        H  0.30063621  0.80768501  0.71062618     0.08930
Cu454      Cu  0.37521501  0.79207922  0.62846465     0.44170
Cu455      Cu  0.33877515  0.85200321  0.67077967     0.41990
Cu456      Cu  0.38356839  0.86546022  0.61139757     0.43880
N457        N  0.40383670  0.80563021  0.59673591    -0.34690
N458        N  0.40577521  0.83328103  0.59082758    -0.28940
C459        C  0.42588123  0.83739378  0.57062952    -0.05040
C460        C  0.43751807  0.81114531  0.56314691     0.07180
C461        C  0.42302287  0.79116686  0.58005488     0.00970
H462        H  0.43206466  0.85825676  0.56244555     0.08620
H463        H  0.42655106  0.76819217  0.58066643     0.07700
N464        N  0.36569067  0.89810951  0.63516675    -0.36130
N465        N  0.34910593  0.89371150  0.65786965    -0.28310
C466        C  0.34187019  0.91942918  0.66926025    -0.03550
C467        C  0.35478835  0.94077192  0.65278420     0.05060
C468        C  0.36960204  0.92640284  0.63137864     0.03150
H469        H  0.32857178  0.92238261  0.68820080     0.08260
H470        H  0.38258505  0.93582718  0.61444633     0.07090
N471        N  0.67800860  0.80787764  0.67310969    -0.27300
N472        N  0.66395935  0.78722785  0.65914220    -0.35160
C473        C  0.67312536  0.76160308  0.66878705     0.01040
C474        C  0.69376664  0.76619322  0.68968790     0.07070
C475        C  0.69638444  0.79566483  0.69204108    -0.06030
H476        H  0.66495619  0.74106662  0.66142591     0.07730
H477        H  0.71032985  0.80738993  0.70663363     0.08930
Cu478      Cu  0.63164080  0.79236470  0.62831671     0.44170
Cu479      Cu  0.67195583  0.85205795  0.66738174     0.41990
Cu480      Cu  0.61409409  0.86577345  0.62049840     0.43880
N481        N  0.59896338  0.80591822  0.60071638    -0.34690
N482        N  0.59294372  0.83357206  0.59891053    -0.28940
C483        C  0.57186707  0.83762599  0.57972088    -0.05040
C484        C  0.56391211  0.81133547  0.56855376     0.07180
C485        C  0.58149129  0.79140000  0.58234490     0.00970
H486        H  0.56338064  0.85847297  0.57384538     0.08620
H487        H  0.58198854  0.76840823  0.57890423     0.07700
N488        N  0.63695164  0.89833525  0.63975370    -0.36130
N489        N  0.65902624  0.89386095  0.65724736    -0.28310
C490        C  0.66936708  0.91956385  0.66602842    -0.03550
C491        C  0.65272426  0.94094480  0.65333840     0.05060
C492        C  0.63248166  0.92665551  0.63684262     0.03150
H493        H  0.68733489  0.92248489  0.68069581     0.08260
H494        H  0.61564406  0.93615765  0.62372878     0.07090
C495        C  0.74227521  0.70650598  0.29973134     0.03120
C496        C  0.73022661  0.73137286  0.31186262    -0.13030
C497        C  0.70610938  0.74452613  0.29907339     0.00620
C498        C  0.69413316  0.73281036  0.27398480    -0.11560
C499        C  0.70588085  0.70774296  0.26197227     0.03110
C500        C  0.73002757  0.69470209  0.27481584    -0.10980
H501        H  0.73861661  0.73957491  0.33203003     0.08710
H502        H  0.67449365  0.74198263  0.26502368     0.06240
H503        H  0.73825472  0.67456351  0.26636502     0.06080
O504        O  0.22441869  0.47196952  0.47294965    -0.72950
O505        O  0.22492946  0.53623140  0.53317971    -0.73930
O506        O  0.22472540  0.47387808  0.53523471    -0.62550
O507        O  0.22457938  0.53415859  0.47108227    -0.70960
O508        O  0.17645298  0.53252262  0.47234301    -0.70520
O509        O  0.17660923  0.47589991  0.53461149    -0.61770
O510        O  0.17678148  0.53562155  0.53166088    -0.74280
O511        O  0.17630571  0.47304231  0.47502947    -0.73060
Cu512      Cu  0.22668615  0.50401831  0.50313980     1.04560
Cu513      Cu  0.17519148  0.50423417  0.50346176     1.04330
C514        C  0.19962058  0.46268634  0.46460192     0.93240
C515        C  0.20031703  0.54620999  0.54129871     0.92380
C516        C  0.20001243  0.46560350  0.54482744     0.84530
C517        C  0.19981648  0.54262396  0.46182842     0.90800
N518        N  0.19994615  0.33294031  0.33192690    -0.27300
N519        N  0.22095123  0.34669172  0.34581956    -0.35160
C520        C  0.24673124  0.33709073  0.33625121     0.01040
C521        C  0.24178517  0.31650054  0.31550027     0.07070
C522        C  0.21201272  0.31429916  0.31323377    -0.06030
H523        H  0.26759038  0.34448190  0.34397083     0.07730
H524        H  0.19997097  0.30012808  0.29915915     0.08930
Cu525      Cu  0.21582788  0.37790216  0.37766948     0.44170
Cu526      Cu  0.15544521  0.33879605  0.33799267     0.41990
Cu527      Cu  0.14119888  0.39067462  0.39059147     0.43880
N528        N  0.20182587  0.40734297  0.40846000    -0.34690
N529        N  0.17374099  0.41114808  0.41257351    -0.28940
C530        C  0.16957955  0.43079049  0.43306733    -0.05040
C531        C  0.19624563  0.44020999  0.44262337     0.07180
C532        C  0.21651010  0.42492531  0.42656423     0.00970
H533        H  0.14845924  0.43794688  0.44027261     0.08620
H534        H  0.23990462  0.42658491  0.42776210     0.07700
N535        N  0.10846586  0.36972186  0.36931810    -0.36130
N536        N  0.11319517  0.34993884  0.34952318    -0.28310
C537        C  0.08737439  0.33974353  0.34037481    -0.03550
C538        C  0.06560388  0.35395691  0.35537520     0.05060
C539        C  0.07982642  0.37281621  0.37341154     0.03150
H540        H  0.08464716  0.32302029  0.32443223     0.08260
H541        H  0.07006681  0.38746066  0.38871280     0.07090
N542        N  0.19996162  0.67339624  0.33067483    -0.27300
N543        N  0.22096876  0.65958266  0.34445413    -0.35160
C544        C  0.24674828  0.66929949  0.33505335     0.01040
C545        C  0.24181491  0.69003885  0.31452933     0.07070
C546        C  0.21204043  0.69221144  0.31221807    -0.06030
H547        H  0.26760169  0.66186997  0.34272441     0.07730
H548        H  0.20000937  0.70647545  0.29827799     0.08930
Cu549      Cu  0.21592838  0.62803579  0.37583110     0.44170
Cu550      Cu  0.15545199  0.66739640  0.33663786     0.41990
Cu551      Cu  0.14133391  0.61482956  0.38838484     0.43880
N552        N  0.20201367  0.59770020  0.40562510    -0.34690
N553        N  0.17393655  0.59347743  0.40934229    -0.28940
C554        C  0.16980459  0.57341363  0.42935207    -0.05040
C555        C  0.19648078  0.56423754  0.43908219     0.07180
C556        C  0.21672702  0.58007079  0.42360057     0.00970
H557        H  0.14868836  0.56621437  0.43651289     0.08620
H558        H  0.24011928  0.57904346  0.42538309     0.07700
N559        N  0.10853330  0.63648353  0.36801027    -0.36130
N560        N  0.11321773  0.65632415  0.34832228    -0.28310
C561        C  0.08737222  0.66650109  0.33925893    -0.03550
C562        C  0.06565151  0.65225949  0.35425161     0.05060
C563        C  0.07990079  0.63340580  0.37219429     0.03150
H564        H  0.08458898  0.68309338  0.32324344     0.08260
H565        H  0.07016040  0.61856342  0.38726936     0.07090
N566        N  0.20058290  0.33364997  0.67494699    -0.27300
N567        N  0.22162360  0.34752432  0.66124150    -0.35160
C568        C  0.24738274  0.33773280  0.67062939     0.01040
C569        C  0.24238060  0.31686632  0.69104050     0.07070
C570        C  0.21259984  0.31473240  0.69331368    -0.06030
H571        H  0.26826320  0.34525299  0.66309125     0.07730
H572        H  0.20051637  0.30048766  0.70724963     0.08930
Cu573      Cu  0.21652544  0.37939778  0.63011462     0.44170
Cu574      Cu  0.15607786  0.33980730  0.66921091     0.41990
Cu575      Cu  0.14182431  0.39348155  0.61873403     0.43880
N576        N  0.20246855  0.41022606  0.60080935    -0.34690
N577        N  0.17438621  0.41480639  0.59759958    -0.28940
C578        C  0.17017448  0.43505491  0.57778840    -0.05040
C579        C  0.19679190  0.44399136  0.56763760     0.07180
C580        C  0.21709194  0.42781472  0.58268403     0.00970
H581        H  0.14903142  0.44248661  0.57098569     0.08620
H582        H  0.24045960  0.42854093  0.58045584     0.07700
N583        N  0.10905564  0.37142416  0.63880883    -0.36130
N584        N  0.11380185  0.35112997  0.65800650    -0.28310
C585        C  0.08798981  0.34065918  0.66687209    -0.03550
C586        C  0.06622490  0.35518744  0.65226081     0.05060
C587        C  0.08041081  0.37450497  0.63474282     0.03150
H588        H  0.08526252  0.32363607  0.68244369     0.08260
H589        H  0.07062100  0.38961059  0.61997921     0.07090
N590        N  0.20012767  0.67087947  0.67787633    -0.27300
N591        N  0.22130384  0.65843591  0.66303514    -0.35160
C592        C  0.24691785  0.66881392  0.67215095     0.01040
C593        C  0.24172516  0.68854628  0.69365469     0.07070
C594        C  0.21193850  0.68941476  0.69684148    -0.06030
H595        H  0.26781707  0.66270984  0.66344926     0.07730
H596        H  0.19970826  0.70289235  0.71144021     0.08930
Cu597      Cu  0.21648718  0.62881203  0.62978288     0.44170
Cu598      Cu  0.15575685  0.66431128  0.67137626     0.41990
Cu599      Cu  0.14330417  0.62708579  0.60674830     0.43880
N600        N  0.20305709  0.60292521  0.59584897    -0.34690
N601        N  0.17566949  0.60353958  0.58756353    -0.28940
C602        C  0.17153260  0.58417071  0.56678699    -0.05040
C603        C  0.19748711  0.57042446  0.56140540     0.07180
C604        C  0.21732235  0.58290315  0.58011590     0.00970
H605        H  0.15072111  0.57967092  0.55702720     0.08620
H606        H  0.23989815  0.57713926  0.58288398     0.07700
N607        N  0.10992426  0.64286910  0.63143247    -0.36130
N608        N  0.11396361  0.65598384  0.65627505    -0.28310
C609        C  0.08780846  0.66147025  0.66815416    -0.03550
C610        C  0.06649658  0.65114667  0.64972010     0.05060
C611        C  0.08139784  0.63964474  0.62667058     0.03150
H612        H  0.08454359  0.67169918  0.68879285     0.08260
H613        H  0.07217884  0.62906181  0.60806861     0.07090
O614        O  0.78243833  0.53623579  0.53321276    -0.72950
O615        O  0.78240500  0.47147699  0.47354254    -0.73930
O616        O  0.78259958  0.47394369  0.53578128    -0.62550
O617        O  0.78231379  0.53365778  0.47110973    -0.70960
O618        O  0.83044245  0.53185245  0.47184620    -0.70520
O619        O  0.83071031  0.47605375  0.53485773    -0.61770
O620        O  0.83053015  0.47242189  0.47531861    -0.74280
O621        O  0.83057130  0.53572677  0.53116402    -0.73060
Cu622      Cu  0.78041716  0.50379921  0.50345402     1.04560
Cu623      Cu  0.83191175  0.50398370  0.50333157     1.04330
C624        C  0.80710735  0.54630813  0.54100933     0.93240
C625        C  0.80712937  0.46200771  0.46516512     0.92380
C626        C  0.80737195  0.46581850  0.54531252     0.84530
C627        C  0.80701460  0.54190007  0.46145838     0.90800
N628        N  0.80622145  0.33181076  0.33286262    -0.27300
N629        N  0.78526377  0.34543763  0.34698094    -0.35160
C630        C  0.75944588  0.33596956  0.33740331     0.01040
C631        C  0.76430213  0.31558953  0.31641694     0.07070
C632        C  0.79407356  0.31341132  0.31398856    -0.06030
H633        H  0.73861665  0.34343463  0.34515469     0.07730
H634        H  0.80605888  0.29950483  0.29959231     0.08930
Cu635      Cu  0.79044695  0.37658624  0.37890309     0.44170
Cu636      Cu  0.85078501  0.33764707  0.33871353     0.41990
Cu637      Cu  0.86502704  0.38906320  0.39169447     0.43880
N638        N  0.80453196  0.40609468  0.40959734    -0.34690
N639        N  0.83263448  0.40973263  0.41368656    -0.28940
C640        C  0.83692559  0.42951618  0.43400586    -0.05040
C641        C  0.81032646  0.43922460  0.44347378     0.07180
C642        C  0.78995976  0.42394454  0.42755151     0.00970
H643        H  0.85809489  0.43662044  0.44109856     0.08620
H644        H  0.76657905  0.42583334  0.42869401     0.07700
N645        N  0.89775629  0.36841386  0.37014436    -0.36130
N646        N  0.89307136  0.34880339  0.35017634    -0.28310
C647        C  0.91893447  0.33887978  0.34079687    -0.03550
C648        C  0.94067142  0.35309751  0.35583466     0.05060
C649        C  0.92638263  0.37167599  0.37411782     0.03150
H650        H  0.92171887  0.32237049  0.32463903     0.08260
H651        H  0.93609441  0.38628659  0.38947069     0.07090
N652        N  0.80644809  0.67363884  0.33128982    -0.27300
N653        N  0.78547596  0.65995179  0.34527983    -0.35160
C654        C  0.75967246  0.66976537  0.33607683     0.01040
C655        C  0.76455102  0.69045421  0.31547733     0.07070
C656        C  0.79432163  0.69245005  0.31287568    -0.06030
H657        H  0.73883883  0.66229131  0.34378631     0.07730
H658        H  0.80631603  0.70647793  0.29864980     0.08930
Cu659      Cu  0.79061178  0.62809290  0.37632981     0.44170
Cu660      Cu  0.85097579  0.66723674  0.33669894     0.41990
Cu661      Cu  0.86517525  0.61284367  0.38649822     0.43880
N662        N  0.80457635  0.59692718  0.40522284    -0.34690
N663        N  0.83262102  0.59185224  0.40794719    -0.28940
C664        C  0.83680896  0.57157225  0.42772072    -0.05040
C665        C  0.81020926  0.56314874  0.43834191     0.07180
C666        C  0.78994517  0.57963582  0.42361302     0.00970
H667        H  0.85793491  0.56385566  0.43425871     0.08620
H668        H  0.76661877  0.57941798  0.42632493     0.07700
N669        N  0.89795279  0.63502227  0.36659765    -0.36130
N670        N  0.89323729  0.65559164  0.34768397    -0.28310
C671        C  0.91906792  0.66617826  0.33901043    -0.03550
C672        C  0.94079912  0.65143628  0.35345057     0.05060
C673        C  0.92658950  0.63188276  0.37067540     0.03150
H674        H  0.92182789  0.68346345  0.32373591     0.08260
H675        H  0.93635172  0.61662964  0.38530547     0.07090
N676        N  0.80707253  0.33355053  0.67508218    -0.27300
N677        N  0.78608811  0.34763629  0.66154887    -0.35160
C678        C  0.76029616  0.33797159  0.67098448     0.01040
C679        C  0.76520479  0.31695593  0.69124401     0.07070
C680        C  0.79497687  0.31458123  0.69337131    -0.06030
H681        H  0.73944884  0.34565102  0.66354688     0.07730
H682        H  0.80699573  0.30015419  0.70715433     0.08930
Cu683      Cu  0.79124948  0.37959759  0.63056428     0.44170
Cu684      Cu  0.85156956  0.33964109  0.66922367     0.41990
Cu685      Cu  0.86585757  0.39414352  0.61940772     0.43880
N686        N  0.80519469  0.41063303  0.60145369    -0.34690
N687        N  0.83325123  0.41545759  0.59834467    -0.28940
C688        C  0.83737360  0.43575155  0.57854841    -0.05040
C689        C  0.81071696  0.44443780  0.56830891     0.07180
C690        C  0.79049750  0.42808508  0.58328841     0.00970
H691        H  0.85847832  0.44331171  0.57174536     0.08620
H692        H  0.76713883  0.42853461  0.58092315     0.07700
N693        N  0.89857954  0.37176938  0.63919191    -0.36130
N694        N  0.89381353  0.35119307  0.65809601    -0.28310
C695        C  0.91961192  0.34059313  0.66679660    -0.03550
C696        C  0.94138923  0.35532641  0.65238831     0.05060
C697        C  0.92723214  0.37489432  0.63515145     0.03150
H698        H  0.92232022  0.32334581  0.68211813     0.08260
H699        H  0.93704547  0.39019664  0.62059239     0.07090
N700        N  0.80762573  0.67047972  0.67802524    -0.27300
N701        N  0.78649679  0.65770843  0.66343337    -0.35160
C702        C  0.76083888  0.66793760  0.67259921     0.01040
C703        C  0.76595056  0.68793504  0.69386295     0.07070
C704        C  0.79574277  0.68913962  0.69684053    -0.06030
H705        H  0.73996613  0.66167690  0.66397056     0.07730
H706        H  0.80792131  0.70296615  0.71113721     0.08930
Cu707      Cu  0.79142543  0.62815926  0.63015950     0.44170
Cu708      Cu  0.85197862  0.66415505  0.67127442     0.41990
Cu709      Cu  0.86447971  0.62688922  0.60652125     0.43880
N710        N  0.80470623  0.60270103  0.59585644    -0.34690
N711        N  0.83201909  0.60348510  0.58730383    -0.28940
C712        C  0.83602003  0.58432074  0.56629787    -0.05040
C713        C  0.81005100  0.57054242  0.56106660     0.07180
C714        C  0.79036012  0.58278025  0.58009732     0.00970
H715        H  0.85676392  0.57991594  0.55633397     0.08620
H716        H  0.76784737  0.57686963  0.58310041     0.07700
N717        N  0.89781872  0.64269819  0.63124503    -0.36130
N718        N  0.89373713  0.65582815  0.65608145    -0.28310
C719        C  0.91986266  0.66134423  0.66796412    -0.03550
C720        C  0.94121182  0.65103690  0.64954587     0.05060
C721        C  0.92636079  0.63950118  0.62649590     0.03150
H722        H  0.92308121  0.67158452  0.68859977     0.08260
H723        H  0.93562418  0.62892209  0.60790213     0.07090
C724        C  0.29974799  0.26180252  0.29938676     0.03120
C725        C  0.31186254  0.27316247  0.27422226    -0.13030
C726        C  0.30036870  0.29821935  0.26205757     0.00620
C727        C  0.27636017  0.31163264  0.27486118    -0.11560
C728        C  0.26397027  0.30016410  0.29984489     0.03110
C729        C  0.27573660  0.27527471  0.31209226    -0.10980
H730        H  0.33143244  0.26373127  0.26532461     0.08710
H731        H  0.26835282  0.33178547  0.26631367     0.06240
H732        H  0.26723434  0.26731836  0.33229925     0.06080
C733        C  0.98859252  0.62490370  0.65291108    -0.01860
C734        C  0.97315039  0.65110645  0.65337290     0.07820
C735        C  0.98851205  0.67728272  0.65514303    -0.01970
C736        C  0.01913217  0.67731010  0.65520792    -0.01970
C737        C  0.03454580  0.65116184  0.65350314     0.07960
C738        C  0.01914652  0.62493135  0.65297711    -0.02170
Br739      Br  0.03984129  0.58879971  0.65280062    -0.00720
Br740      Br  0.96795618  0.58873601  0.65264761    -0.00790
Br741      Br  0.03983771  0.71336200  0.65527396    -0.00750
Br742      Br  0.96774820  0.71329963  0.65511935    -0.00730
C743        C  0.98850895  0.34136581  0.62983966    -0.01860
C744        C  0.97317039  0.35139522  0.65408877     0.07820
C745        C  0.98851343  0.36048083  0.67867852    -0.01970
C746        C  0.01911644  0.36044740  0.67865176    -0.01970
C747        C  0.03443044  0.35131591  0.65403569     0.07960
C748        C  0.01904771  0.34131558  0.62981569    -0.02170
Br749      Br  0.03985296  0.32773987  0.59640772    -0.00720
Br750      Br  0.96763289  0.32792284  0.59645051    -0.00790
Br751      Br  0.04001783  0.37515968  0.71143306    -0.00750
Br752      Br  0.96763953  0.37519600  0.71150485    -0.00730
C753        C  0.01822842  0.66600301  0.37634359    -0.01860
C754        C  0.03383521  0.65585296  0.35230162     0.07820
C755        C  0.01873658  0.64635164  0.32771140    -0.01970
C756        C  0.98813591  0.64616942  0.32751905    -0.01970
C757        C  0.97257649  0.65546027  0.35191436     0.07960
C758        C  0.98769085  0.66578424  0.37615618    -0.02170
Br759      Br  0.96650673  0.67937683  0.40932285    -0.00720
Br760      Br  0.03871488  0.68004861  0.40972581    -0.00790
Br761      Br  0.96755023  0.63099409  0.29475230    -0.00750
Br762      Br  0.03991972  0.63131328  0.29522602    -0.00730
C763        C  0.01856400  0.34059008  0.37846059    -0.01860
C764        C  0.03380772  0.34983100  0.35385497     0.07820
C765        C  0.01833978  0.35777372  0.32896248    -0.01970
C766        C  0.98772617  0.35754657  0.32906333    -0.01770
C767        C  0.97251047  0.34935499  0.35405389     0.07960
C768        C  0.98803471  0.34034290  0.37855731    -0.02170
Br769      Br  0.96748401  0.32761025  0.41243243    -0.00720
Br770      Br  0.03950845  0.32823260  0.41220781    -0.00790
Br771      Br  0.96671011  0.37080921  0.29578133    -0.00750
Br772      Br  0.03899765  0.37128888  0.29553060    -0.00730
C773        C  0.63222762  0.01794491  0.67017206    -0.01860
C774        C  0.65477189  0.03316263  0.65645654     0.07820
C775        C  0.67777174  0.01798393  0.64341247    -0.01970
C776        C  0.67784585  0.98767693  0.64348067    -0.01970
C777        C  0.65491905  0.97248484  0.65659944     0.07960
C778        C  0.63230389  0.98770844  0.67025070    -0.02170
Br779      Br  0.60115317  0.96708696  0.68883781    -0.00720
Br780      Br  0.60095221  0.03858014  0.68859828    -0.00790
Br781      Br  0.70809285  0.96698102  0.62359122    -0.00750
Br782      Br  0.70792775  0.03869397  0.62346322    -0.00730
C783        C  0.37987933  0.01783512  0.66152146    -0.01860
C784        C  0.35388046  0.03304770  0.65652025     0.07820
C785        C  0.32770660  0.01782321  0.65258395    -0.01970
C786        C  0.32770570  0.98751876  0.65266432    -0.01970
C787        C  0.35387984  0.97233155  0.65668736     0.07960
C788        C  0.37987829  0.98759539  0.66161136    -0.02170
Br789      Br  0.41565091  0.96708028  0.66853767    -0.00720
Br790      Br  0.41565509  0.03842368  0.66829427    -0.00790
Br791      Br  0.29225397  0.96687743  0.64481549    -0.00750
Br792      Br  0.29225738  0.03840156  0.64464217    -0.00730
C793        C  0.62606880  0.98822002  0.34690439    -0.01860
C794        C  0.65221469  0.97292223  0.35082758     0.07820
C795        C  0.67858002  0.98808418  0.35363970    -0.01970
C796        C  0.67865512  0.01839283  0.35358179    -0.01970
C797        C  0.65236869  0.03365640  0.35073006     0.07960
C798        C  0.62614499  0.01846292  0.34687069    -0.02170
Br799      Br  0.59016449  0.03907868  0.34143866    -0.00720
Br800      Br  0.58998865  0.96775911  0.34143442    -0.00790
Br801      Br  0.71448244  0.03894313  0.35983099    -0.00750
Br802      Br  0.71431121  0.96743387  0.36001663    -0.00730
C803        C  0.32775721  0.01821312  0.35597572    -0.01860
C804        C  0.35355653  0.03346907  0.35019900     0.07820
C805        C  0.37922177  0.01829959  0.34354887    -0.01970
C806        C  0.37934090  0.98807685  0.34367774    -0.01970
C807        C  0.35379535  0.97278959  0.35046014     0.07960
C808        C  0.32787523  0.98791376  0.35610575    -0.02170
Br809      Br  0.29310362  0.96722629  0.36641805    -0.00720
Br810      Br  0.29283149  0.03875881  0.36610816    -0.00790
Br811      Br  0.41465964  0.96763397  0.33445596    -0.00750
Br812      Br  0.41438646  0.03890956  0.33417907    -0.00730
C813        C  0.67806562  0.65314184  0.01843558    -0.01860
C814        C  0.65177413  0.65675636  0.03356937     0.07820
C815        C  0.62576378  0.66138324  0.01825606    -0.01970
C816        C  0.62587201  0.66133444  0.98802365    -0.01970
C817        C  0.65199225  0.65667154  0.97285780     0.07960
C818        C  0.67817340  0.65310770  0.98813264    -0.02170
Br819      Br  0.71382863  0.64575937  0.96762043    -0.00720
Br820      Br  0.71357573  0.64579132  0.03911926    -0.00790
Br821      Br  0.59007408  0.66779756  0.96740141    -0.00750
Br822      Br  0.58981924  0.66794305  0.03867087    -0.00730
C823        C  0.62752337  0.34600952  0.01812432    -0.01860
C824        C  0.65350714  0.35103920  0.03336956     0.07820
C825        C  0.67968221  0.35506583  0.01815703    -0.01970
C826        C  0.67969065  0.35507638  0.98784861    -0.01970
C827        C  0.65352511  0.35107264  0.97264165     0.07960
C828        C  0.62753134  0.34603634  0.98788506    -0.02170
Br829      Br  0.59176776  0.33909865  0.96734642    -0.00720
Br830      Br  0.59175361  0.33898490  0.03865632    -0.00790
Br831      Br  0.71514283  0.36298952  0.96723193    -0.00750
Br832      Br  0.71512206  0.36299733  0.03876586    -0.00730
C833        C  0.38148457  0.65424554  0.98838858    -0.01860
C834        C  0.35495141  0.65392694  0.97323253     0.07820
C835        C  0.32852580  0.65487268  0.98854136    -0.01970
C836        C  0.32860891  0.65500412  0.01884147    -0.01970
C837        C  0.35512127  0.65420430  0.03397529     0.07960
C838        C  0.38156961  0.65439054  0.01862707    -0.02170
Br839      Br  0.41813357  0.65523851  0.03896014    -0.00720
Br840      Br  0.41792761  0.65487700  0.96778502    -0.00790
Br841      Br  0.29228930  0.65387042  0.03949838    -0.00750
Br842      Br  0.29209933  0.65359601  0.96812381    -0.00730
C843        C  0.38160256  0.34754601  0.98843049    -0.01860
C844        C  0.35528349  0.34972146  0.97306474     0.07820
C845        C  0.32875133  0.35088094  0.98818355    -0.01970
C846        C  0.32861018  0.35097190  0.01849196    -0.01970
C847        C  0.35499732  0.34992317  0.03381623     0.07960
C848        C  0.38145994  0.34765733  0.01866935    -0.02170
Br849      Br  0.41770808  0.34444442  0.03930474    -0.00720
Br850      Br  0.41804692  0.34413463  0.96810476    -0.00790
Br851      Br  0.29236461  0.35497694  0.03891739    -0.00750
Br852      Br  0.29269173  0.35481041  0.96748799    -0.00730
loop_ 
_geom_bond_atom_site_label_1 
_geom_bond_atom_site_label_2 
_geom_bond_distance 
_geom_bond_site_symmetry_2 
_ccdc_geom_bond_type 
C1            C2   1.402       .  A
C1            C6   1.402       .  A
C1          C254   1.466       .  S
C2            C3   1.402       .  A
C2            H7   1.084       .  S
C3            C4   1.402       .  A
C3          C474   1.467       .  S
C4            C5   1.402       .  A
C4            H8   1.084       .  S
C5            C6   1.401       .  A
C5          C703   1.467       .  S
C6            H9   1.084       .  S
C10          C11   1.402       .  A
C10          C15   1.401       .  A
C10          C96   1.465       .  S
C11          C12   1.401       .  A
C11          H16   1.084       .  S
C12          C13   1.401       .  A
C12         C545   1.466       .  S
C13          C14   1.401       .  A
C13          H17   1.084       .  S
C14          C15   1.401       .  A
C14         C402   1.465       .  S
C15          H18   1.084       .  S
C19          C20   1.401       .  A
C19          C24   1.402       .  A
C19         C364   1.466       .  S
C20          C21   1.401       .  A
C20          H25   1.084       .  S
C21          C22   1.401       .  A
C21         C679   1.467       .  S
C22          C23   1.402       .  A
C22          H26   1.084       .  S
C23          C24   1.402       .  A
C23         C230   1.467       .  S
C24          H27   1.084       .  S
C28          C29   1.401       .  A
C28          C33   1.401       .  A
C28         C569   1.467       .  S
C29          C30   1.402       .  A
C29          H34   1.084       .  S
C30          C31   1.401       .  A
C30         C340   1.466       .  S
C31          C32   1.401       .  A
C31          H35   1.084       .  S
C32          C33   1.402       .  A
C32         C182   1.466       .  S
C33          H36   1.084       .  S
C37          C38   1.402       .  A
C37          C42   1.401       .  A
C37         C206   1.465       .  S
C38          C39   1.401       .  A
C38          H43   1.084       .  S
C39          C40   1.402       .  A
C39         C593   1.467       .  S
C40          C41   1.402       .  A
C40          H44   1.084       .  S
C41          C42   1.401       .  A
C41         C450   1.466       .  S
C42          H45   1.084       .  S
C46          C47   1.402       .  A
C46          C51   1.402       .  A
C46         C120   1.466       .  S
C47          C48   1.401       .  A
C47          H52   1.084       .  S
C48          C49   1.401       .  A
C48         C631   1.467       .  S
C49          C50   1.402       .  A
C49          H53   1.084       .  S
C50          C51   1.401       .  A
C50         C316   1.466       .  S
C51          H54   1.084       .  S
O55         Cu63   1.958       .  S
O55          C65   1.272       .  A
O56         Cu63   1.959       .  S
O56          C66   1.272       .  A
O57         Cu63   1.960       .  S
O57          C67   1.272       .  A
O58         Cu63   1.959       .  S
O58          C68   1.272       .  A
O59         Cu64   2.048       .  S
O59          C68   1.281       .  A
O60         Cu64   2.048       .  S
O60          C67   1.281       .  A
O61         Cu64   2.049       .  S
O61          C66   1.282       .  A
O62         Cu64   2.049       .  S
O62          C65   1.282       .  A
Cu63        Cu64   2.373       .  S
C65          C82   1.468       .  S
C66         C154   1.468       .  S
C67         C130   1.468       .  S
C68         C106   1.467       .  S
N69          N70   1.328       .  A
N69          C73   1.349       .  A
N69         Cu77   2.091       .  S
N70          C71   1.342       .  A
N70         Cu76   2.079       .  S
C71          C72   1.376       .  A
C71          H74   1.082       .  S
C72          C73   1.381       .  A
C72         C726   1.466       .  S
C73          H75   1.082       .  S
Cu76         N79   2.074       .  S
Cu77         N87   2.088       .  S
Cu78         N80   2.050       .  S
Cu78         N86   2.051       .  S
N79          N80   1.319       .  A
N79          C83   1.354       .  A
N80          C81   1.333       .  A
C81          C82   1.378       .  A
C81          H84   1.082       .  S
C82          C83   1.389       .  A
C83          H85   1.082       .  S
N86          N87   1.320       .  A
N86          C90   1.341       .  A
N87          C88   1.350       .  A
C88          C89   1.390       .  A
C88          H91   1.082       .  S
C89          C90   1.380       .  A
C89         C847   1.481       .  S
C90          H92   1.082       .  S
N93          N94   1.327       .  A
N93          C97   1.348       .  A
N93        Cu101   2.089       .  S
N94          C95   1.342       .  A
N94        Cu100   2.077       .  S
C95          C96   1.376       .  A
C95          H98   1.082       .  S
C96          C97   1.381       .  A
C97          H99   1.082       .  S
Cu100       N103   2.074       .  S
Cu101       N111   2.086       .  S
Cu102       N104   2.051       .  S
Cu102       N110   2.052       .  S
N103        N104   1.319       .  A
N103        C107   1.353       .  A
N104        C105   1.334       .  A
C105        C106   1.378       .  A
C105        H108   1.082       .  S
C106        C107   1.388       .  A
C107        H109   1.082       .  S
N110        N111   1.320       .  A
N110        C114   1.341       .  A
N111        C112   1.349       .  A
C112        C113   1.389       .  A
C112        H115   1.082       .  S
C113        C114   1.380       .  A
C113        C837   1.481       .  S
C114        H116   1.082       .  S
N117        N118   1.328       .  A
N117        C121   1.349       .  A
N117       Cu125   2.091       .  S
N118        C119   1.343       .  A
N118       Cu124   2.081       .  S
C119        C120   1.377       .  A
C119        H122   1.082       .  S
C120        C121   1.381       .  A
C121        H123   1.082       .  S
Cu124       N127   2.077       .  S
Cu125       N135   2.088       .  S
Cu126       N128   2.050       .  S
Cu126       N134   2.051       .  S
N127        N128   1.319       .  A
N127        C131   1.354       .  A
N128        C129   1.333       .  A
C129        C130   1.378       .  A
C129        H132   1.081       .  S
C130        C131   1.389       .  A
C131        H133   1.082       .  S
N134        N135   1.320       .  A
N134        C138   1.341       .  A
N135        C136   1.350       .  A
C136        C137   1.389       .  A
C136        H139   1.082       .  S
C137        C138   1.379       .  A
C137        C824   1.481       .  S
C138        H140   1.082       .  S
N141        N142   1.328       .  A
N141        C145   1.348       .  A
N141       Cu149   2.090       .  S
N142        C143   1.343       .  A
N142       Cu148   2.081       .  S
C143        C144   1.377       .  A
C143        H146   1.082       .  S
C144        C145   1.380       .  A
C144        C499   1.466       .  S
C145        H147   1.082       .  S
Cu148       N151   2.077       .  S
Cu149       N159   2.087       .  S
Cu150       N152   2.049       .  S
Cu150       N158   2.050       .  S
N151        N152   1.319       .  A
N151        C155   1.354       .  A
N152        C153   1.333       .  A
C153        C154   1.378       .  A
C153        H156   1.082       .  S
C154        C155   1.389       .  A
C155        H157   1.082       .  S
N158        N159   1.320       .  A
N158        C162   1.341       .  A
N159        C160   1.350       .  A
C160        C161   1.389       .  A
C160        H163   1.082       .  S
C161        C162   1.379       .  A
C161        C814   1.480       .  S
C162        H164   1.082       .  S
O165       Cu173   1.959       .  S
O165        C175   1.272       .  A
O166       Cu173   1.960       .  S
O166        C176   1.272       .  A
O167       Cu173   1.961       .  S
O167        C177   1.272       .  A
O168       Cu173   1.961       .  S
O168        C178   1.272       .  A
O169       Cu174   2.049       .  S
O169        C178   1.282       .  A
O170       Cu174   2.048       .  S
O170        C177   1.281       .  A
O171       Cu174   2.049       .  S
O171        C176   1.282       .  A
O172       Cu174   2.049       .  S
O172        C175   1.282       .  A
Cu173      Cu174   2.373       .  S
C175        C192   1.468       .  S
C176        C264   1.469       .  S
C177        C216   1.467       .  S
C178        C240   1.468       .  S
N179        N180   1.328       .  A
N179        C183   1.349       .  A
N179       Cu187   2.091       .  S
N180        C181   1.342       .  A
N180       Cu186   2.079       .  S
C181        C182   1.377       .  A
C181        H184   1.082       .  S
C182        C183   1.381       .  A
C183        H185   1.082       .  S
Cu186       N189   2.075       .  S
Cu187       N197   2.088       .  S
Cu188       N190   2.050       .  S
Cu188       N196   2.051       .  S
N189        N190   1.319       .  A
N189        C193   1.354       .  A
N190        C191   1.334       .  A
C191        C192   1.378       .  A
C191        H194   1.082       .  S
C192        C193   1.389       .  A
C193        H195   1.082       .  S
N196        N197   1.320       .  A
N196        C200   1.341       .  A
N197        C198   1.350       .  A
C198        C199   1.390       .  A
C198        H201   1.082       .  S
C199        C200   1.380       .  A
C199        C844   1.481       .  S
C200        H202   1.082       .  S
N203        N204   1.327       .  A
N203        C207   1.348       .  A
N203       Cu211   2.087       .  S
N204        C205   1.342       .  A
N204       Cu210   2.078       .  S
C205        C206   1.377       .  A
C205        H208   1.082       .  S
C206        C207   1.381       .  A
C207        H209   1.082       .  S
Cu210       N213   2.075       .  S
Cu211       N221   2.085       .  S
Cu212       N214   2.052       .  S
Cu212       N220   2.053       .  S
N213        N214   1.319       .  A
N213        C217   1.353       .  A
N214        C215   1.334       .  A
C215        C216   1.378       .  A
C215        H218   1.082       .  S
C216        C217   1.388       .  A
C217        H219   1.082       .  S
N220        N221   1.320       .  A
N220        C224   1.341       .  A
N221        C222   1.349       .  A
C222        C223   1.389       .  A
C222        H225   1.082       .  S
C223        C224   1.380       .  A
C223        C834   1.481       .  S
C224        H226   1.082       .  S
N227        N228   1.328       .  A
N227        C231   1.349       .  A
N227       Cu235   2.092       .  S
N228        C229   1.343       .  A
N228       Cu234   2.081       .  S
C229        C230   1.377       .  A
C229        H232   1.082       .  S
C230        C231   1.381       .  A
C231        H233   1.082       .  S
Cu234       N237   2.077       .  S
Cu235       N245   2.089       .  S
Cu236       N238   2.050       .  S
Cu236       N244   2.051       .  S
N237        N238   1.319       .  A
N237        C241   1.354       .  A
N238        C239   1.334       .  A
C239        C240   1.378       .  A
C239        H242   1.082       .  S
C240        C241   1.389       .  A
C241        H243   1.082       .  S
N244        N245   1.320       .  A
N244        C248   1.341       .  A
N245        C246   1.350       .  A
C246        C247   1.389       .  A
C246        H249   1.082       .  S
C247        C248   1.379       .  A
C247        C827   1.481       .  S
C248        H250   1.082       .  S
N251        N252   1.328       .  A
N251        C255   1.348       .  A
N251       Cu259   2.090       .  S
N252        C253   1.343       .  A
N252       Cu258   2.083       .  S
C253        C254   1.377       .  A
C253        H256   1.082       .  S
C254        C255   1.380       .  A
C255        H257   1.082       .  S
Cu258       N261   2.079       .  S
Cu259       N269   2.087       .  S
Cu260       N262   2.049       .  S
Cu260       N268   2.050       .  S
N261        N262   1.319       .  A
N261        C265   1.354       .  A
N262        C263   1.333       .  A
C263        C264   1.378       .  A
C263        H266   1.082       .  S
C264        C265   1.390       .  A
C265        H267   1.082       .  S
N268        N269   1.320       .  A
N268        C272   1.341       .  A
N269        C270   1.350       .  A
C270        C271   1.389       .  A
C270        H273   1.082       .  S
C271        C272   1.379       .  A
C271        C817   1.480       .  S
C272        H274   1.082       .  S
O275       Cu283   1.958       .  S
O275        C285   1.272       .  A
O276       Cu283   1.958       .  S
O276        C286   1.272       .  A
O277       Cu283   1.960       .  S
O277        C287   1.272       .  A
O278       Cu283   1.959       .  S
O278        C288   1.272       .  A
O279       Cu284   2.049       .  S
O279        C288   1.282       .  A
O280       Cu284   2.049       .  S
O280        C287   1.282       .  A
O281       Cu284   2.049       .  S
O281        C286   1.282       .  A
O282       Cu284   2.050       .  S
O282        C285   1.282       .  A
Cu283      Cu284   2.373       .  S
C285        C374   1.468       .  S
C286        C302   1.468       .  S
C287        C326   1.468       .  S
C288        C350   1.468       .  S
N289        N290   1.328       .  A
N289        C293   1.348       .  A
N289       Cu297   2.089       .  S
N290        C291   1.343       .  A
N290       Cu296   2.082       .  S
C291        C292   1.377       .  A
C291        H294   1.082       .  S
C292        C293   1.380       .  A
C292        C724   1.465       .  S
C293        H295   1.082       .  S
Cu296       N299   2.078       .  S
Cu297       N307   2.086       .  S
Cu298       N300   2.047       .  S
Cu298       N306   2.048       .  S
N299        N300   1.319       .  A
N299        C303   1.354       .  A
N300        C301   1.333       .  A
C301        C302   1.378       .  A
C301        H304   1.082       .  S
C302        C303   1.390       .  A
C303        H305   1.082       .  S
N306        N307   1.319       .  A
N306        C310   1.340       .  A
N307        C308   1.350       .  A
C308        C309   1.389       .  A
C308        H311   1.082       .  S
C309        C310   1.379       .  A
C309        C804   1.479       .  S
C310        H312   1.082       .  S
N313        N314   1.328       .  A
N313        C317   1.349       .  A
N313       Cu321   2.091       .  S
N314        C315   1.343       .  A
N314       Cu320   2.080       .  S
C315        C316   1.377       .  A
C315        H318   1.082       .  S
C316        C317   1.381       .  A
C317        H319   1.082       .  S
Cu320       N323   2.076       .  S
Cu321       N331   2.088       .  S
Cu322       N324   2.051       .  S
Cu322       N330   2.052       .  S
N323        N324   1.319       .  A
N323        C327   1.354       .  A
N324        C325   1.334       .  A
C325        C326   1.378       .  A
C325        H328   1.081       .  S
C326        C327   1.389       .  A
C327        H329   1.082       .  S
N330        N331   1.320       .  A
N330        C334   1.341       .  A
N331        C332   1.350       .  A
C332        C333   1.389       .  A
C332        H335   1.082       .  S
C333        C334   1.379       .  A
C333        C797   1.481       .  S
C334        H336   1.082       .  S
N337        N338   1.328       .  A
N337        C341   1.349       .  A
N337       Cu345   2.091       .  S
N338        C339   1.342       .  A
N338       Cu344   2.079       .  S
C339        C340   1.377       .  A
C339        H342   1.082       .  S
C340        C341   1.381       .  A
C341        H343   1.082       .  S
Cu344       N347   2.075       .  S
Cu345       N355   2.088       .  S
Cu346       N348   2.050       .  S
Cu346       N354   2.051       .  S
N347        N348   1.319       .  A
N347        C351   1.354       .  A
N348        C349   1.334       .  A
C349        C350   1.378       .  A
C349        H352   1.082       .  S
C350        C351   1.389       .  A
C351        H353   1.082       .  S
N354        N355   1.320       .  A
N354        C358   1.341       .  A
N355        C356   1.350       .  A
C356        C357   1.389       .  A
C356        H359   1.082       .  S
C357        C358   1.379       .  A
C357        C784   1.480       .  S
C358        H360   1.082       .  S
N361        N362   1.328       .  A
N361        C365   1.349       .  A
N361       Cu369   2.092       .  S
N362        C363   1.343       .  A
N362       Cu368   2.080       .  S
C363        C364   1.377       .  A
C363        H366   1.082       .  S
C364        C365   1.381       .  A
C365        H367   1.082       .  S
Cu368       N371   2.077       .  S
Cu369       N379   2.089       .  S
Cu370       N372   2.050       .  S
Cu370       N378   2.051       .  S
N371        N372   1.319       .  A
N371        C375   1.354       .  A
N372        C373   1.333       .  A
C373        C374   1.378       .  A
C373        H376   1.082       .  S
C374        C375   1.389       .  A
C375        H377   1.082       .  S
N378        N379   1.320       .  A
N378        C382   1.341       .  A
N379        C380   1.350       .  A
C380        C381   1.389       .  A
C380        H383   1.082       .  S
C381        C382   1.379       .  A
C381        C774   1.478       .  S
C382        H384   1.082       .  S
O385       Cu393   2.051       .  S
O385        C395   1.282       .  A
O386       Cu393   2.050       .  S
O386        C396   1.282       .  A
O387       Cu393   2.050       .  S
O387        C397   1.282       .  A
O388       Cu393   2.050       .  S
O388        C398   1.282       .  A
O389       Cu394   1.958       .  S
O389        C398   1.272       .  A
O390       Cu394   1.960       .  S
O390        C397   1.272       .  A
O391       Cu394   1.959       .  S
O391        C396   1.272       .  A
O392       Cu394   1.958       .  S
O392        C395   1.272       .  A
Cu393      Cu394   2.372       .  S
C395        C484   1.469       .  S
C396        C412   1.469       .  S
C397        C436   1.469       .  S
C398        C460   1.469       .  S
N399        N400   1.328       .  A
N399        C403   1.348       .  A
N399       Cu407   2.087       .  S
N400        C401   1.343       .  A
N400       Cu406   2.082       .  S
C401        C402   1.377       .  A
C401        H404   1.082       .  S
C402        C403   1.380       .  A
C403        H405   1.082       .  S
Cu406       N409   2.078       .  S
Cu407       N417   2.084       .  S
Cu408       N410   2.049       .  S
Cu408       N416   2.049       .  S
N409        N410   1.319       .  A
N409        C413   1.354       .  A
N410        C411   1.333       .  A
C411        C412   1.378       .  A
C411        H414   1.082       .  S
C412        C413   1.390       .  A
C413        H415   1.082       .  S
N416        N417   1.319       .  A
N416        C420   1.341       .  A
N417        C418   1.349       .  A
C418        C419   1.389       .  A
C418        H421   1.082       .  S
C419        C420   1.379       .  A
C419        C807   1.479       .  S
C420        H422   1.082       .  S
N423        N424   1.328       .  A
N423        C427   1.348       .  A
N423       Cu431   2.090       .  S
N424        C425   1.343       .  A
N424       Cu430   2.080       .  S
C425        C426   1.377       .  A
C425        H428   1.082       .  S
C426        C427   1.381       .  A
C426        C497   1.466       .  S
C427        H429   1.082       .  S
Cu430       N433   2.076       .  S
Cu431       N441   2.087       .  S
Cu432       N434   2.052       .  S
Cu432       N440   2.053       .  S
N433        N434   1.319       .  A
N433        C437   1.354       .  A
N434        C435   1.334       .  A
C435        C436   1.379       .  A
C435        H438   1.082       .  S
C436        C437   1.389       .  A
C437        H439   1.082       .  S
N440        N441   1.320       .  A
N440        C444   1.341       .  A
N441        C442   1.350       .  A
C442        C443   1.389       .  A
C442        H445   1.082       .  S
C443        C444   1.380       .  A
C443        C794   1.481       .  S
C444        H446   1.082       .  S
N447        N448   1.328       .  A
N447        C451   1.348       .  A
N447       Cu455   2.090       .  S
N448        C449   1.343       .  A
N448       Cu454   2.082       .  S
C449        C450   1.377       .  A
C449        H452   1.082       .  S
C450        C451   1.381       .  A
C451        H453   1.082       .  S
Cu454       N457   2.078       .  S
Cu455       N465   2.088       .  S
Cu456       N458   2.049       .  S
Cu456       N464   2.050       .  S
N457        N458   1.319       .  A
N457        C461   1.354       .  A
N458        C459   1.333       .  A
C459        C460   1.378       .  A
C459        H462   1.082       .  S
C460        C461   1.390       .  A
C461        H463   1.082       .  S
N464        N465   1.320       .  A
N464        C468   1.341       .  A
N465        C466   1.350       .  A
C466        C467   1.389       .  A
C466        H469   1.082       .  S
C467        C468   1.379       .  A
C467        C787   1.480       .  S
C468        H470   1.082       .  S
N471        N472   1.328       .  A
N471        C475   1.349       .  A
N471       Cu479   2.092       .  S
N472        C473   1.343       .  A
N472       Cu478   2.082       .  S
C473        C474   1.377       .  A
C473        H476   1.082       .  S
C474        C475   1.381       .  A
C475        H477   1.082       .  S
Cu478       N481   2.078       .  S
Cu479       N489   2.089       .  S
Cu480       N482   2.049       .  S
Cu480       N488   2.050       .  S
N481        N482   1.319       .  A
N481        C485   1.354       .  A
N482        C483   1.333       .  A
C483        C484   1.378       .  A
C483        H486   1.082       .  S
C484        C485   1.390       .  A
C485        H487   1.082       .  S
N488        N489   1.320       .  A
N488        C492   1.341       .  A
N489        C490   1.350       .  A
C490        C491   1.389       .  A
C490        H493   1.082       .  S
C491        C492   1.379       .  A
C491        C777   1.479       .  S
C492        H494   1.082       .  S
C495        C496   1.401       .  A
C495        C500   1.401       .  A
C495        C655   1.467       .  S
C496        C497   1.402       .  A
C496        H501   1.084       .  S
C497        C498   1.401       .  A
C498        C499   1.401       .  A
C498        H502   1.084       .  S
C499        C500   1.402       .  A
C500        H503   1.084       .  S
O504       Cu512   2.050       .  S
O504        C514   1.282       .  A
O505       Cu512   2.050       .  S
O505        C515   1.282       .  A
O506       Cu512   2.053       .  S
O506        C516   1.282       .  A
O507       Cu512   2.052       .  S
O507        C517   1.282       .  A
O508       Cu513   1.959       .  S
O508        C517   1.272       .  A
O509       Cu513   1.962       .  S
O509        C516   1.273       .  A
O510       Cu513   1.963       .  S
O510        C515   1.272       .  A
O511       Cu513   1.963       .  S
O511        C514   1.273       .  A
Cu512      Cu513   2.372       .  S
C514        C531   1.470       .  S
C515        C603   1.469       .  S
C516        C579   1.471       .  S
C517        C555   1.470       .  S
N518        N519   1.328       .  A
N518        C522   1.347       .  A
N518       Cu526   2.087       .  S
N519        C520   1.344       .  A
N519       Cu525   2.087       .  S
C520        C521   1.378       .  A
C520        H523   1.082       .  S
C521        C522   1.379       .  A
C521        C728   1.466       .  S
C522        H524   1.082       .  S
Cu525       N528   2.083       .  S
Cu526       N536   2.084       .  S
Cu527       N529   2.049       .  S
Cu527       N535   2.050       .  S
N528        N529   1.320       .  A
N528        C532   1.355       .  A
N529        C530   1.334       .  A
C530        C531   1.378       .  A
C530        H533   1.081       .  S
C531        C532   1.390       .  A
C532        H534   1.082       .  S
N535        N536   1.319       .  A
N535        C539   1.341       .  A
N536        C537   1.349       .  A
C537        C538   1.389       .  A
C537        H540   1.082       .  S
C538        C539   1.379       .  A
C538        C764   1.479       .  S
C539        H541   1.082       .  S
N542        N543   1.328       .  A
N542        C546   1.347       .  A
N542       Cu550   2.088       .  S
N543        C544   1.344       .  A
N543       Cu549   2.085       .  S
C544        C545   1.378       .  A
C544        H547   1.082       .  S
C545        C546   1.380       .  A
C546        H548   1.082       .  S
Cu549       N552   2.081       .  S
Cu550       N560   2.085       .  S
Cu551       N553   2.049       .  S
Cu551       N559   2.050       .  S
N552        N553   1.319       .  A
N552        C556   1.355       .  A
N553        C554   1.333       .  A
C554        C555   1.378       .  A
C554        H557   1.081       .  S
C555        C556   1.390       .  A
C556        H558   1.082       .  S
N559        N560   1.319       .  A
N559        C563   1.341       .  A
N560        C561   1.349       .  A
C561        C562   1.388       .  A
C561        H564   1.082       .  S
C562        C563   1.379       .  A
C562        C754   1.478       .  S
C563        H565   1.082       .  S
N566        N567   1.328       .  A
N566        C570   1.347       .  A
N566       Cu574   2.087       .  S
N567        C568   1.345       .  A
N567       Cu573   2.088       .  S
C568        C569   1.379       .  A
C568        H571   1.082       .  S
C569        C570   1.379       .  A
C570        H572   1.082       .  S
Cu573       N576   2.084       .  S
Cu574       N584   2.084       .  S
Cu575       N577   2.050       .  S
Cu575       N583   2.051       .  S
N576        N577   1.320       .  A
N576        C580   1.355       .  A
N577        C578   1.334       .  A
C578        C579   1.378       .  A
C578        H581   1.081       .  S
C579        C580   1.391       .  A
C580        H582   1.082       .  S
N583        N584   1.319       .  A
N583        C587   1.341       .  A
N584        C585   1.350       .  A
C585        C586   1.388       .  A
C585        H588   1.082       .  S
C586        C587   1.379       .  A
C586        C747   1.478       .  S
C587        H589   1.082       .  S
N590        N591   1.327       .  A
N590        C594   1.348       .  A
N590       Cu598   2.089       .  S
N591        C592   1.344       .  A
N591       Cu597   2.083       .  S
C592        C593   1.378       .  A
C592        H595   1.082       .  S
C593        C594   1.381       .  A
C594        H596   1.082       .  S
Cu597       N600   2.079       .  S
Cu598       N608   2.086       .  S
Cu599       N601   2.053       .  S
Cu599       N607   2.054       .  S
N600        N601   1.320       .  A
N600        C604   1.354       .  A
N601        C602   1.335       .  A
C602        C603   1.379       .  A
C602        H605   1.081       .  S
C603        C604   1.389       .  A
C604        H606   1.082       .  S
N607        N608   1.320       .  A
N607        C611   1.341       .  A
N608        C609   1.349       .  A
C609        C610   1.389       .  A
C609        H612   1.082       .  S
C610        C611   1.380       .  A
C610        C737   1.482       .  S
C611        H613   1.082       .  S
O614       Cu622   2.049       .  S
O614        C624   1.282       .  A
O615       Cu622   2.050       .  S
O615        C625   1.281       .  A
O616       Cu622   2.052       .  S
O616        C626   1.282       .  A
O617       Cu622   2.052       .  S
O617        C627   1.282       .  A
O618       Cu623   1.960       .  S
O618        C627   1.272       .  A
O619       Cu623   1.962       .  S
O619        C626   1.273       .  A
O620       Cu623   1.963       .  S
O620        C625   1.273       .  A
O621       Cu623   1.964       .  S
O621        C624   1.273       .  A
Cu622      Cu623   2.372       .  S
C624        C713   1.469       .  S
C625        C641   1.470       .  S
C626        C689   1.471       .  S
C627        C665   1.470       .  S
N628        N629   1.328       .  A
N628        C632   1.348       .  A
N628       Cu636   2.089       .  S
N629        C630   1.344       .  A
N629       Cu635   2.088       .  S
C630        C631   1.378       .  A
C630        H633   1.082       .  S
C631        C632   1.380       .  A
C632        H634   1.082       .  S
Cu635       N638   2.084       .  S
Cu636       N646   2.085       .  S
Cu637       N639   2.048       .  S
Cu637       N645   2.049       .  S
N638        N639   1.319       .  A
N638        C642   1.355       .  A
N639        C640   1.334       .  A
C640        C641   1.378       .  A
C640        H643   1.081       .  S
C641        C642   1.391       .  A
C642        H644   1.082       .  S
N645        N646   1.319       .  A
N645        C649   1.340       .  A
N646        C647   1.350       .  A
C647        C648   1.389       .  A
C647        H650   1.082       .  S
C648        C649   1.379       .  A
C648        C767   1.479       .  S
C649        H651   1.082       .  S
N652        N653   1.328       .  A
N652        C656   1.348       .  A
N652       Cu660   2.088       .  S
N653        C654   1.344       .  A
N653       Cu659   2.086       .  S
C654        C655   1.378       .  A
C654        H657   1.082       .  S
C655        C656   1.380       .  A
C656        H658   1.082       .  S
Cu659       N662   2.082       .  S
Cu660       N670   2.085       .  S
Cu661       N663   2.049       .  S
Cu661       N669   2.050       .  S
N662        N663   1.320       .  A
N662        C666   1.355       .  A
N663        C664   1.333       .  A
C664        C665   1.378       .  A
C664        H667   1.081       .  S
C665        C666   1.390       .  A
C666        H668   1.082       .  S
N669        N670   1.320       .  A
N669        C673   1.341       .  A
N670        C671   1.350       .  A
C671        C672   1.388       .  A
C671        H674   1.082       .  S
C672        C673   1.379       .  A
C672        C757   1.477       .  S
C673        H675   1.082       .  S
N676        N677   1.328       .  A
N676        C680   1.348       .  A
N676       Cu684   2.087       .  S
N677        C678   1.344       .  A
N677       Cu683   2.087       .  S
C678        C679   1.378       .  A
C678        H681   1.082       .  S
C679        C680   1.380       .  A
C680        H682   1.082       .  S
Cu683       N686   2.083       .  S
Cu684       N694   2.084       .  S
Cu685       N687   2.051       .  S
Cu685       N693   2.052       .  S
N686        N687   1.320       .  A
N686        C690   1.355       .  A
N687        C688   1.334       .  A
C688        C689   1.378       .  A
C688        H691   1.081       .  S
C689        C690   1.390       .  A
C690        H692   1.082       .  S
N693        N694   1.320       .  A
N693        C697   1.341       .  A
N694        C695   1.349       .  A
C695        C696   1.388       .  A
C695        H698   1.082       .  S
C696        C697   1.379       .  A
C696        C744   1.478       .  S
C697        H699   1.082       .  S
N700        N701   1.327       .  A
N700        C704   1.348       .  A
N700       Cu708   2.088       .  S
N701        C702   1.343       .  A
N701       Cu707   2.082       .  S
C702        C703   1.378       .  A
C702        H705   1.082       .  S
C703        C704   1.381       .  A
C704        H706   1.082       .  S
Cu707       N710   2.078       .  S
Cu708       N718   2.085       .  S
Cu709       N711   2.054       .  S
Cu709       N717   2.055       .  S
N710        N711   1.320       .  A
N710        C714   1.354       .  A
N711        C712   1.335       .  A
C712        C713   1.379       .  A
C712        H715   1.081       .  S
C713        C714   1.389       .  A
C714        H716   1.082       .  S
N717        N718   1.320       .  A
N717        C721   1.341       .  A
N718        C719   1.349       .  A
C719        C720   1.389       .  A
C719        H722   1.082       .  S
C720        C721   1.381       .  A
C720        C734   1.482       .  S
C721        H723   1.082       .  S
C724        C725   1.401       .  A
C724        C729   1.401       .  A
C725        C726   1.401       .  A
C725        H730   1.084       .  S
C726        C727   1.402       .  A
C727        C728   1.401       .  A
C727        H731   1.084       .  S
C728        C729   1.401       .  A
C729        H732   1.084       .  S
C733        C734   1.412       .  A
C733        C738   1.407   1_655  A
C733       Br740   1.933       .  S
C734        C735   1.411       .  A
C735        C736   1.411   1_655  A
C735       Br742   1.930       .  S
C736        C737   1.411       .  A
C736       Br741   1.930       .  S
C737        C738   1.412       .  A
C738       Br739   1.933       .  S
C743        C744   1.410       .  A
C743        C748   1.407   1_655  A
C743       Br750   1.931       .  S
C744        C745   1.410       .  A
C745        C746   1.410   1_655  A
C745       Br752   1.929       .  S
C746        C747   1.410       .  A
C746       Br751   1.929       .  S
C747        C748   1.410       .  A
C748       Br749   1.931       .  S
C753        C754   1.410       .  A
C753        C758   1.407   1_455  A
C753       Br760   1.931       .  S
C754        C755   1.410       .  A
C755        C756   1.410   1_455  A
C755       Br762   1.929       .  S
C756        C757   1.410       .  A
C756       Br761   1.929       .  S
C757        C758   1.410       .  A
C758       Br759   1.931       .  S
C763        C764   1.411       .  A
C763        C768   1.406   1_455  A
C763       Br770   1.932       .  S
C764        C765   1.410       .  A
C765        C766   1.410   1_455  A
C765       Br772   1.929       .  S
C766        C767   1.410       .  A
C766       Br771   1.929       .  S
C767        C768   1.411       .  A
C768       Br769   1.932       .  S
C773        C774   1.410       .  A
C773        C778   1.407   1_545  A
C773       Br780   1.931       .  S
C774        C775   1.410       .  A
C775        C776   1.410   1_545  A
C775       Br782   1.929       .  S
C776        C777   1.410       .  A
C776       Br781   1.929       .  S
C777        C778   1.410       .  A
C778       Br779   1.931       .  S
C783        C784   1.411       .  A
C783        C788   1.407   1_545  A
C783       Br790   1.932       .  S
C784        C785   1.410       .  A
C785        C786   1.410   1_545  A
C785       Br792   1.929       .  S
C786        C787   1.410       .  A
C786       Br791   1.929       .  S
C787        C788   1.411       .  A
C788       Br789   1.932       .  S
C793        C794   1.411       .  A
C793        C798   1.407   1_565  A
C793       Br800   1.932       .  S
C794        C795   1.411       .  A
C795        C796   1.410   1_565  A
C795       Br802   1.929       .  S
C796        C797   1.410       .  A
C796       Br801   1.929       .  S
C797        C798   1.411       .  A
C798       Br799   1.932       .  S
C803        C804   1.410       .  A
C803        C808   1.410   1_545  A
C803       Br810   1.929       .  S
C804        C805   1.411       .  A
C805        C806   1.406   1_545  A
C805       Br812   1.932       .  S
C806        C807   1.411       .  A
C806       Br811   1.932       .  S
C807        C808   1.410       .  A
C808       Br809   1.929       .  S
C813        C814   1.411       .  A
C813        C818   1.410   1_554  A
C813       Br820   1.929       .  S
C814        C815   1.411       .  A
C815        C816   1.407   1_554  A
C815       Br822   1.932       .  S
C816        C817   1.411       .  A
C816       Br821   1.932       .  S
C817        C818   1.410       .  A
C818       Br819   1.929       .  S
C823        C824   1.411       .  A
C823        C828   1.407   1_554  A
C823       Br830   1.932       .  S
C824        C825   1.410       .  A
C825        C826   1.410   1_554  A
C825       Br832   1.929       .  S
C826        C827   1.410       .  A
C826       Br831   1.929       .  S
C827        C828   1.411       .  A
C828       Br829   1.932       .  S
C833        C834   1.412       .  A
C833        C838   1.407   1_556  A
C833       Br840   1.933       .  S
C834        C835   1.411       .  A
C835        C836   1.410   1_556  A
C835       Br842   1.930       .  S
C836        C837   1.411       .  A
C836       Br841   1.930       .  S
C837        C838   1.412       .  A
C838       Br839   1.933       .  S
C843        C844   1.412       .  A
C843        C848   1.407   1_556  A
C843       Br850   1.933       .  S
C844        C845   1.411       .  A
C845        C846   1.411   1_556  A
C845       Br852   1.930       .  S
C846        C847   1.411       .  A
C846       Br851   1.930       .  S
C847        C848   1.412       .  A
C848       Br849   1.933       .  S
