geometry optimzed in LAMMPS
_audit_creation_date              2020-12-01 
_audit_creation_method            'lammps2cif' 
_symmetry_space_group_name_H-M    'P1' 
_symmetry_Int_Tables_number       1 
_symmetry_cell_setting            triclinic 
loop_ 
_symmetry_equiv_pos_as_xyz 
  x,y,z 
_cell_length_a                    38.27479382 
_cell_length_b                    35.933257490906776 
_cell_length_c                    32.91228672755719 
_cell_angle_alpha                 90.22256404200076 
_cell_angle_beta                  104.44851123837006 
_cell_angle_gamma                 89.64570201483933 
loop_ 
_atom_site_label 
_atom_site_type_symbol 
_atom_site_fract_x 
_atom_site_fract_y 
_atom_site_fract_z 
_atom_site_charge 
C1          C  0.79285312  0.09213175  0.41723697     0.31400
C2          C  0.82335399  0.04087960  0.37434590     0.31400
C3          C  0.82516199  0.10534219  0.40167914    -0.04800
C4          C  0.80971903  0.05802007  0.44290356    -0.05500
C5          C  0.76695539  0.07365837  0.37930518    -0.05400
C6          C  0.83930315  0.08060513  0.37736919    -0.04800
C7          C  0.82567392  0.03169290  0.42104208    -0.05500
C8          C  0.78234752  0.04715470  0.35753614    -0.05400
C9          C  0.85759587  0.10285367  0.35515052    -0.30800
N10         N  0.85767796  0.13866557  0.36878550     0.15700
C11         C  0.83937324  0.13974714  0.39879323    -0.30800
H12         H  0.83112700  0.16530168  0.41137505     0.17600
C13         C  0.83579815  0.00163858  0.44742578    -0.29800
N14         N  0.82718007  0.00936673  0.48421390     0.14400
C15         C  0.81099324  0.04335222  0.48161274    -0.29800
C16         C  0.75587917  0.02031394  0.34446769    -0.30100
N17         N  0.72556900  0.02969031  0.35642532     0.14900
H18         H  0.77158803  0.48905428  0.34009964     0.17500
C19         C  0.73194078  0.06211647  0.37751516    -0.30100
H20         H  0.71438531  0.07381420  0.39551684     0.17500
H21         H  0.81126440  0.05938015  0.00975249     0.17500
H22         H  0.86455292  0.09537074  0.32633755     0.17600
H23         H  0.86007920  0.47682849  0.44317347     0.17600
Fe24       Fe  0.67920189  0.20391063  0.31727714     1.65800
Fe25       Fe  0.60498756  0.23627660  0.34366624     1.73200
Fe26       Fe  0.68714180  0.24804412  0.40919285     1.54400
O27         O  0.72599560  0.20475667  0.41741352    -0.80200
O28         O  0.61149209  0.29240835  0.34730207    -0.78500
O29         O  0.70507865  0.16767141  0.36288614    -0.82700
O30         O  0.72340159  0.24152944  0.32737878    -0.77600
O31         O  0.65831359  0.21759459  0.44121326    -0.79400
O32         O  0.59868772  0.24058548  0.27796941    -0.82100
C33         C  0.73001064  0.27167243  0.34881414     0.98600
C34         C  0.72770563  0.17490452  0.39700294     1.06100
O35         O  0.65720543  0.22964641  0.35632161    -1.11100
O36         O  0.59746268  0.17961306  0.33922821    -0.73500
O37         O  0.63724103  0.16507547  0.30186849    -0.77000
O38         O  0.71595781  0.27924566  0.37868901    -0.77700
C39         C  0.61020331  0.15722927  0.31647840     0.97600
O40         O  0.65422555  0.23685895  0.26866161    -0.75700
O41         O  0.60373407  0.23646469  0.40772556    -0.80900
C42         C  0.63094721  0.31102591  0.37720947     1.00200
C43         C  0.62702579  0.22849582  0.44173041     1.06100
O44         O  0.65455257  0.29595803  0.40721908    -0.76500
C45         C  0.62102870  0.24436050  0.25519292     1.04400
C46         C  0.67822103  0.34110379  0.12834314     0.33800
C47         C  0.64521556  0.28718911  0.16371373     0.31400
C48         C  0.64968469  0.35443550  0.15041590    -0.04800
C49         C  0.65633838  0.31275970  0.09718523    -0.05500
C50         C  0.70334873  0.31579586  0.16035608    -0.05400
C51         C  0.63378835  0.32771509  0.17014285    -0.04800
C52         C  0.63922894  0.28469073  0.11544858    -0.05500
C53         C  0.68673379  0.28831153  0.17841717    -0.05400
C54         C  0.61626831  0.34736334  0.19581648    -0.30800
N55         N  0.61900778  0.38439949  0.18929205     0.15700
C56         C  0.63906754  0.38869309  0.16115624    -0.30800
H57         H  0.64980538  0.41505423  0.15412270     0.17600
C58         C  0.63430555  0.25468017  0.08828074    -0.29800
N59         N  0.64647844  0.26391936  0.05440566     0.14400
C60         C  0.66106413  0.29838231  0.06023111    -0.29800
C61         C  0.71217601  0.26012495  0.18998734    -0.30100
N62         N  0.74339913  0.27009928  0.18064557     0.14900
H63         H  0.70769314  0.23319380  0.20230657     0.17500
C64         C  0.73810872  0.30371439  0.16190439    -0.30100
H65         H  0.75720331  0.31723090  0.14754020     0.17500
H66         H  0.67728290  0.31048920  0.04108161     0.17500
H67         H  0.60706334  0.33647308  0.22181472     0.17600
H68         H  0.62627200  0.22695425  0.09480003     0.17600
Fe69       Fe  0.80191558  0.44969862  0.22394641     1.65800
Fe70       Fe  0.86937681  0.48810860  0.19082770     1.73200
Fe71       Fe  0.79162289  0.99482026  0.12953302     1.54400
O72         O  0.74714833  0.44880265  0.12893855    -0.80200
O73         O  0.86051307  0.04489917  0.18932526    -0.78500
O74         O  0.77738849  0.41207920  0.17947846    -0.82700
O75         O  0.75639133  0.48242196  0.21640135    -0.77600
O76         O  0.81076844  0.46525917  0.09510312    -0.79400
O77         O  0.87827327  0.49577903  0.25702379    -0.82100
C78         C  0.74575999  0.51280647  0.19754264     0.98600
C79         C  0.75006365  0.41873889  0.14987154     1.06100
O80         O  0.81831409  0.47755648  0.18236271    -1.11100
O81         O  0.88215719  0.43164033  0.19711251    -0.73500
O82         O  0.84597412  0.41511903  0.23746913    -0.77000
O83         O  0.76298106  0.02377409  0.16377711    -0.77700
C84         C  0.87151472  0.40824681  0.22030029     0.97600
O85         O  0.82551048  0.48437912  0.27131192    -0.75700
O86         O  0.87573202  0.98786497  0.13122755    -0.80900
C87         C  0.83992329  0.06130493  0.15831785     1.00200
C88         C  0.84210297  0.47522862  0.09321178     1.06100
O89         O  0.82067289  0.04343515  0.12756922    -0.76500
C90         C  0.85730205  0.49678624  0.28191950     1.04400
Fe91       Fe  0.62559644  0.49184169  0.35187872     1.65800
Fe92       Fe  0.67503396  0.44792174  0.29578036     1.73200
Fe93       Fe  0.59436938  0.98449738  0.22705888     1.54400
O94         O  0.55351444  0.47391739  0.27152096    -0.80200
O95         O  0.68717862  0.49051278  0.26044958    -0.78500
O96         O  0.57359100  0.47023776  0.34137666    -0.82700
O97         O  0.59440234  0.04260845  0.30913971    -0.77600
O98         O  0.59359969  0.42985563  0.22472474    -0.79400
O99         O  0.70697834  0.47053144  0.34867781    -0.82100
C100        C  0.59310054  0.05863412  0.27449382     0.98600
C101        C  0.54851673  0.46787019  0.30763844     1.06100
O102        O  0.63099966  0.47413082  0.29766046    -1.11100
O103        O  0.66226644  0.40640841  0.33129552    -0.73500
O104        O  0.64572816  0.44088683  0.38057147    -0.77000
O105        O  0.59311640  0.04089494  0.24096519    -0.77700
C106        C  0.65412114  0.40976601  0.36629778     0.97600
O107        O  0.66352086  0.01965453  0.35147742    -0.75700
O108        O  0.65245497  0.41906386  0.24284652    -0.80900
C109        C  0.66770517  0.50325985  0.22602533     1.00200
C110        C  0.62122218  0.41176674  0.22112343     1.06100
O111        O  0.63744268  0.99673426  0.20205023    -0.76500
C112        C  0.70571799  0.50370804  0.36002070     1.04400
Fe113      Fe  0.85721078  0.23870514  0.20871274     1.65800
Fe114      Fe  0.80327041  0.20015438  0.26297389     1.73200
Fe115      Fe  0.87896797  0.24156270  0.31505564     1.54400
O116        O  0.92525147  0.22937830  0.29623925    -0.80200
O117        O  0.78418652  0.24580648  0.28784290    -0.78500
O118        O  0.90963611  0.21811860  0.22715011    -0.82700
O119        O  0.87572722  0.29196985  0.22677280    -0.77600
O120        O  0.88134363  0.18776533  0.33789978    -0.79400
O121        O  0.77585281  0.21608937  0.20389899    -0.82100
C122        C  0.88063370  0.31034362  0.26085110     0.98600
C123        C  0.93302424  0.21989051  0.26227748     1.06100
O124        O  0.84721352  0.22703520  0.26226474    -1.11100
O125        O  0.82463553  0.15613004  0.23899731    -0.73500
O126        O  0.84072062  0.18498090  0.18606786    -0.77000
O127        O  0.88003682  0.29569709  0.29569775    -0.77700
C128        C  0.83720226  0.15573613  0.20678245     0.97600
O129        O  0.80609032  0.26327399  0.18893229    -0.75700
O130        O  0.82253265  0.17874914  0.32169297    -0.80900
C131        C  0.80179671  0.26393584  0.31952089     1.00200
C132        C  0.85412096  0.16941534  0.34102054     1.06100
O133        O  0.83464944  0.25676110  0.33819747    -0.76500
C134        C  0.77637152  0.24881991  0.19066805     1.04400
C135        C  0.18004093  0.09621481  0.13409623     0.31400
C136        C  0.15807840  0.04327007  0.18227649     0.31400
C137        C  0.15215926  0.10857119  0.15802614    -0.04800
C138        C  0.16036154  0.06245481  0.11002422    -0.05500
C139        C  0.21087358  0.07760283  0.16802861    -0.05400
C140        C  0.14159133  0.08253177  0.18343367    -0.04800
C141        C  0.14946721  0.03511131  0.13480125    -0.05500
C142        C  0.19915300  0.04992656  0.19191563    -0.05400
C143        C  0.11942779  0.10159352  0.20422104    -0.30800
N144        N  0.11481667  0.13732775  0.19049217     0.15700
C145        C  0.13424407  0.14131977  0.16162441    -0.30800
H146        H  0.13884732  0.16800510  0.14883396     0.17600
C147        C  0.14047912  0.00390013  0.11006600    -0.29800
N148        N  0.14417435  0.01192437  0.07112223     0.14400
C149        C  0.15679617  0.04720291  0.07093031    -0.29800
C150        C  0.22572341  0.02248351  0.19923534    -0.30100
N151        N  0.25305995  0.03218439  0.18244474     0.14900
H152        H  0.23372628  0.49275032  0.21590988     0.17500
C153        C  0.24494165  0.06564881  0.16438103    -0.30100
H154        H  0.26192792  0.07818899  0.14683697     0.17500
H155        H  0.16602411  0.05940617  0.04545437     0.17500
H156        H  0.11167770  0.09260814  0.23189933     0.17600
H157        H  0.14639518  0.48067299  0.12146759     0.17600
Fe158      Fe  0.29429128  0.18989348  0.21121918     1.65800
Fe159      Fe  0.36311355  0.23752751  0.18846624     1.73200
Fe160      Fe  0.27874681  0.24297287  0.12369472     1.54400
O161        O  0.24664958  0.19522699  0.11057341    -0.80200
O162        O  0.34963284  0.29308166  0.18472674    -0.78500
O163        O  0.26952182  0.15528411  0.16185878    -0.82700
O164        O  0.24858842  0.22126895  0.20629620    -0.77600
O165        O  0.31006523  0.22259019  0.08635801    -0.79400
O166        O  0.36752674  0.24222322  0.25337447    -0.82100
C167        C  0.23926296  0.25330843  0.19129617     0.98600
C168        C  0.24856309  0.16285641  0.12636254     1.06100
O169        O  0.31225811  0.22305269  0.17430792    -1.11100
O170        O  0.38006263  0.18244786  0.19328096    -0.73500
O171        O  0.33899499  0.15601360  0.22160294    -0.77000
O172        O  0.24779055  0.26630887  0.15951386    -0.77700
C173        C  0.36844873  0.15514679  0.21044375     0.97600
O174        O  0.31613216  0.22103784  0.26406567    -0.75700
O175        O  0.36483109  0.23744024  0.12551258    -0.80900
C176        C  0.32660726  0.31052292  0.15675968     1.00200
C177        C  0.34312973  0.23015673  0.09022281     1.06100
O178        O  0.30356905  0.29427386  0.12792436    -0.76500
C179        C  0.34556546  0.23847036  0.27650887     1.04400
C180        C  0.29893301  0.33535284  0.42292979     0.31400
C181        C  0.32244137  0.28407557  0.37372714     0.31400
C182        C  0.32603961  0.34949122  0.39945304    -0.04800
C183        C  0.31956624  0.30199475  0.44649558    -0.05500
C184        C  0.26945052  0.31638076  0.38913607    -0.05400
C185        C  0.33730380  0.32423990  0.37307810    -0.04800
C186        C  0.33145567  0.27539661  0.42138896    -0.05500
C187        C  0.28126598  0.29024688  0.36404724    -0.05400
C188        C  0.35435816  0.34566411  0.34868406    -0.30800
N189        N  0.35575748  0.38171848  0.36180987     0.15700
C190        C  0.33848815  0.38411345  0.39284587    -0.30800
H191        H  0.33134256  0.41005251  0.40566023     0.17600
C192        C  0.34364646  0.24511092  0.44687556    -0.29800
N193        N  0.34086717  0.25332321  0.48635214     0.14400
C194        C  0.32585746  0.28770721  0.48622444    -0.29800
C195        C  0.25330644  0.26502106  0.35221991    -0.30100
N196        N  0.22516373  0.27553583  0.36789687     0.14900
H197        H  0.25441610  0.23897628  0.33596746     0.17500
C198        C  0.23481109  0.30657569  0.39088003    -0.30100
H199        H  0.21951230  0.31873538  0.41121891     0.17500
H200        H  0.31507290  0.30827378  0.00473918     0.17500
H201        H  0.36089736  0.33723209  0.31993504     0.17600
H202        H  0.35152455  0.21828812  0.43689746     0.17600
Fe203      Fe  0.18862653  0.44467987  0.34397165     1.65800
Fe204      Fe  0.11967234  0.49161978  0.36481624     1.73200
Fe205      Fe  0.20651192  0.99679145  0.43375690     1.54400
O206        O  0.23430908  0.44257071  0.44346673    -0.80200
O207        O  0.13499442  0.04830797  0.37403559    -0.78500
O208        O  0.20311627  0.40768588  0.39246193    -0.82700
O209        O  0.23807154  0.47203459  0.36058141    -0.77600
O210        O  0.16585357  0.46557957  0.46512328    -0.79400
O211        O  0.11903805  0.49747396  0.30051109    -0.82100
C212        C  0.25116227  0.50046200  0.38246532     0.98600
C213        C  0.23114049  0.41320509  0.42138955     1.06100
O214        O  0.16989624  0.47645396  0.38085703    -1.11100
O215        O  0.10244573  0.43654615  0.35672628    -0.73500
O216        O  0.14161591  0.41428370  0.32266127    -0.77000
O217        O  0.23950090  0.02285577  0.40317475    -0.77700
C218        C  0.11304299  0.41117273  0.33540324     0.97600
O219        O  0.17350369  0.48036930  0.29398213    -0.75700
O220        O  0.12148456  0.99283064  0.43244486    -0.80900
C221        C  0.15673398  0.06503859  0.40400958     1.00200
C222        C  0.13461963  0.47912207  0.46196523     1.06100
O223        O  0.17921445  0.04779280  0.43318747    -0.76500
C224        C  0.14316846  0.49617542  0.27967916     1.04400
Fe225      Fe  0.11198986  0.24419714  0.34895572     1.65800
Fe226      Fe  0.16474377  0.20180271  0.29635455     1.73200
Fe227      Fe  0.08757588  0.24019063  0.24195494     1.54400
O228        O  0.04255967  0.22994027  0.26363498    -0.80200
O229        O  0.18006681  0.24577148  0.26508987    -0.78500
O230        O  0.05959869  0.22355449  0.33346912    -0.82700
O231        O  0.09363680  0.29666818  0.32774899    -0.77600
O232        O  0.08650043  0.18497655  0.22077332    -0.79400
O233        O  0.19274898  0.22111295  0.35293230    -0.82100
C234        C  0.09063954  0.31335285  0.29307199     0.98600
C235        C  0.03572030  0.22274015  0.29862824     1.06100
O236        O  0.12025474  0.22806330  0.29559078    -1.11100
O237        O  0.14776052  0.15882477  0.32654351    -0.73500
O238        O  0.12913014  0.19164474  0.37561325    -0.77000
O239        O  0.08848121  0.29615587  0.25863671    -0.77700
C240        C  0.13661081  0.16084659  0.35978448     0.97600
O241        O  0.16305375  0.26971023  0.36532986    -0.75700
O242        O  0.14563891  0.17601872  0.24096343    -0.80900
C243        C  0.16262106  0.25699328  0.22885322     1.00200
C244        C  0.11498699  0.16718833  0.21905013     1.06100
O245        O  0.12902075  0.25195520  0.21444802    -0.76500
C246        C  0.19245847  0.25467723  0.36283259     1.04400
Fe247      Fe  0.37567734  0.48875156  0.21239391     1.65800
Fe248      Fe  0.31418481  0.44953832  0.25410210     1.73200
Fe249      Fe  0.38308540  0.98715072  0.29839590     1.54400
O250        O  0.43678128  0.47266875  0.30382954    -0.80200
O251        O  0.29587409  0.49421163  0.28084778    -0.78500
O252        O  0.42526076  0.46307975  0.23429959    -0.82700
O253        O  0.38472647  0.04166092  0.21510411    -0.77600
O254        O  0.38554091  0.43067157  0.33768892    -0.79400
O255        O  0.29388138  0.47188136  0.19630144    -0.82100
C256        C  0.38731651  0.05858577  0.24963182     0.98600
C257        C  0.44655770  0.46323120  0.27093033     1.06100
O258        O  0.36057176  0.47381029  0.26205182    -1.11100
O259        O  0.33338749  0.40584185  0.22706910    -0.73500
O260        O  0.35708701  0.43814796  0.18228230    -0.77000
O261        O  0.38526409  0.04221708  0.28294923    -0.77700
C262        C  0.34737754  0.40759592  0.19599013     0.97600
O263        O  0.31298057  0.02166613  0.17744530    -0.75700
O264        O  0.32700106  0.42214431  0.31038607    -0.80900
C265        C  0.30954361  0.50687289  0.31722763     1.00200
C266        C  0.35658285  0.41265391  0.33504863     1.06100
O267        O  0.33981540  0.00226421  0.32342568    -0.76500
C268        C  0.29656568  0.50619847  0.19110350     1.04400
C269        C  0.09401490  0.35442205  0.29350055    -0.15000
C270        C  0.09345506  0.37539555  0.32743788    -0.30200
H271        H  0.10297808  0.36686267  0.26781937     0.14000
H272        H  0.08293800  0.36399777  0.35248523     0.14600
C273        C  0.15757418  0.10611198  0.40320632    -0.15000
C274        C  0.13033188  0.12545427  0.37863652    -0.30200
H275        H  0.18277615  0.11997212  0.41774028     0.14000
H276        H  0.10535794  0.11136478  0.36374851     0.14600
C277        C  0.28472378  0.51539952  0.37648430    -0.15000
C278        C  0.28461877  0.52552087  0.33760012    -0.30200
H279        H  0.30928516  0.50462433  0.39737459     0.14000
H280        H  0.25814658  0.03879709  0.30786664     0.14600
C281        C  0.26319232  0.39212328  0.41805419    -0.15000
C282        C  0.28128300  0.36549248  0.44399184    -0.30200
H283        H  0.26647893  0.39280864  0.38618176     0.14000
H284        H  0.27770452  0.36178915  0.47540855     0.14600
C285        C  0.38868579  0.09940794  0.25054742    -0.15000
C286        C  0.38831548  0.11972073  0.21629101    -0.30200
H287        H  0.38218738  0.11291704  0.27740892     0.14000
H288        H  0.39583490  0.10750073  0.18942850     0.14600
C289        C  0.32398969  0.35111760  0.15963068    -0.15000
C290        C  0.35262140  0.37230892  0.17602117    -0.30200
H291        H  0.29708850  0.36333935  0.15275296     0.14000
H292        H  0.37975238  0.36084222  0.18202742     0.14600
C293        C  0.33133429  0.25402667  0.34441615    -0.15000
C294        C  0.35297499  0.25807971  0.31792054    -0.30200
H295        H  0.31457170  0.22937956  0.34045264     0.14000
H296        H  0.37376408  0.27897191  0.32391874     0.14600
C297        C  0.35599715  0.23578553  0.05207782    -0.15000
C298        C  0.33342923  0.23402009  0.01375034    -0.30200
H299        H  0.38167954  0.24981810  0.05571968     0.14000
H300        H  0.30730601  0.22077628  0.00936193     0.14600
C301        C  0.18228718  0.27207690  0.19991802    -0.15000
C302        C  0.21778515  0.27553855  0.21282328    -0.30200
H303        H  0.16991934  0.26839904  0.16660939     0.14000
H304        H  0.22984862  0.27911880  0.24620735     0.14600
C305        C  0.22459191  0.13281333  0.10401480    -0.15000
C306        C  0.19157264  0.12938821  0.11087459    -0.30200
H307        H  0.23727614  0.10861767  0.09422780     0.14000
H308        H  0.17915967  0.15582824  0.11481136     0.14600
C309        C  0.14993385  0.01259879  0.21097553    -0.15000
C310        C  0.12929797  0.01614207  0.23862308    -0.30200
H311        H  0.16708087  0.98811898  0.21434448     0.14000
H312        H  0.11490197  0.53617029  0.23162207     0.14600
C313        C  0.14461409  0.98530230  0.03879701    -0.15000
C314        C  0.13413602  0.98925437  0.50635510    -0.30200
H315        H  0.16814474  0.96729558  0.04300278     0.14000
H316        H  0.10860081  0.00308018  0.50535430     0.14600
C317        C  0.97136327  0.21354578  0.26308713    -0.15000
C318        C  0.99777552  0.21576434  0.29894614    -0.30200
H319        H  0.97827281  0.21166172  0.23305719     0.14000
H320        H  0.99094324  0.21688603  0.32905272     0.14600
C321        C  0.51105072  0.46062793  0.30982434    -0.15000
C322        C  0.48492801  0.45504637  0.27428909    -0.30200
H323        H  0.49391207  0.96134831  0.30947376     0.14000
H324        H  0.49232118  0.44984114  0.24495202     0.14600
C325        C  0.88681242  0.37035811  0.22619760    -0.15000
C326        C  0.88400417  0.35101202  0.26015067    -0.30200
H327        H  0.89403769  0.35660838  0.19997644     0.14000
H328        H  0.87843687  0.36588230  0.28672428     0.14600
C329        C  0.83628150  0.10212502  0.15967456    -0.15000
C330        C  0.85001595  0.11972580  0.19597734    -0.30200
H331        H  0.81783562  0.11648677  0.13397819     0.14000
H332        H  0.86626644  0.10437252  0.22250040     0.14600
C333        C  0.71917880  0.53395832  0.21249730    -0.15000
C334        C  0.68528818  0.52281911  0.19774427    -0.30200
H335        H  0.73367332  0.03653159  0.24287946     0.14000
H336        H  0.67556154  0.51623388  0.16456196     0.14600
C337        C  0.71926014  0.39381182  0.14797996    -0.15000
C338        C  0.70008491  0.37281254  0.11586675    -0.30200
H339        H  0.71576715  0.38802235  0.17916102     0.14000
H340        H  0.70321277  0.37560976  0.08415535     0.14600
C341        C  0.59555739  0.09965047  0.27454756    -0.15000
C342        C  0.59437183  0.11979912  0.30876876    -0.30200
H343        H  0.60384984  0.11276536  0.24877653     0.14000
H344        H  0.58445908  0.10734863  0.33375492     0.14600
C345        C  0.62625517  0.35168704  0.37467948    -0.15000
C346        C  0.65337365  0.37530483  0.38983355    -0.30200
H347        H  0.60269265  0.36200728  0.35154802     0.14000
H348        H  0.67842045  0.36539838  0.41047267     0.14600
C349        C  0.60934214  0.26035932  0.21239351    -0.15000
C350        C  0.63047765  0.25564010  0.18547471    -0.30200
H351        H  0.58801684  0.28096344  0.20651756     0.14000
H352        H  0.64591794  0.22991796  0.18826128     0.14600
C353        C  0.62004362  0.23874722  0.48272017    -0.15000
C354        C  0.65155699  0.23914525  0.02224305    -0.30200
H355        H  0.59505478  0.25322018  0.48277772     0.14000
H356        H  0.67896988  0.22982087  0.02410545     0.14600
C357        C  0.75343421  0.30135900  0.33985889    -0.15000
C358        C  0.78588900  0.29774784  0.33200330    -0.30200
H359        H  0.74642387  0.32934064  0.34791746     0.14000
H360        H  0.80207075  0.32275014  0.33397103     0.14600
C361        C  0.76072536  0.15200045  0.40477779    -0.15000
C362        C  0.77196826  0.12376852  0.43250754    -0.30200
H363        H  0.77077832  0.15205940  0.37671126     0.14000
H364        H  0.76070463  0.11995290  0.45935414     0.14600
C365        C  0.86003720  0.01560544  0.32342417    -0.15000
C366        C  0.83668513  0.01096322  0.34808162    -0.30200
H367        H  0.88872230  0.53651222  0.32829304     0.14000
H368        H  0.82117634  0.98543081  0.34382950     0.14600
C369        C  0.86238304  0.98533578  0.05671793    -0.15000
C370        C  0.83612756  0.98631532  0.02087366    -0.30200
H371        H  0.88796575  0.99866656  0.05760756     0.14000
H372        H  0.79468986  0.47617462  0.01863669     0.14600
C373        C  0.80463380  0.09510664  0.92136921     0.31400
C374        C  0.83252137  0.04228740  0.87785087     0.31400
C375        C  0.83597169  0.10747769  0.90334334    -0.04800
C376        C  0.82193946  0.06136959  0.94738058    -0.05500
C377        C  0.77751330  0.07610034  0.88489165    -0.05400
C378        C  0.84876597  0.08165903  0.87878571    -0.04800
C379        C  0.83647604  0.03417237  0.92514455    -0.05500
C380        C  0.79165316  0.04912975  0.86264564    -0.05400
C381        C  0.86347049  0.10300211  0.85218157    -0.30800
N382        N  0.86386560  0.13928375  0.86387375     0.15700
C383        C  0.84805421  0.14195286  0.89597090    -0.30800
H384        H  0.83996885  0.16809580  0.90744064     0.17600
C385        C  0.84544175  0.00384191  0.95135591    -0.29800
N386        N  0.83772293  0.01224818  0.98846964     0.14400
C387        C  0.82291778  0.04690163  0.98613441    -0.29800
C388        C  0.76457987  0.02304781  0.84998290    -0.30100
N389        N  0.73497373  0.03332877  0.86280888     0.14900
H390        H  0.76073398  0.49685981  0.82932152     0.17500
C391        C  0.74250027  0.06548633  0.88421902    -0.30100
H392        H  0.72560656  0.07778510  0.90266462     0.17500
H393        H  0.79913907  0.05540065  0.50529141     0.17500
H394        H  0.86778415  0.09432271  0.82236612     0.17600
H395        H  0.84362470  0.47642690  0.94080808     0.17600
Fe396      Fe  0.69044302  0.20747776  0.82227288     1.65800
Fe397      Fe  0.61854516  0.24537793  0.84845829     1.73200
Fe398      Fe  0.70074464  0.25127850  0.91545903     1.54400
O399        O  0.73812051  0.20681771  0.92302965    -0.80200
O400        O  0.62975500  0.30097421  0.85375015    -0.78500
O401        O  0.71524436  0.17102668  0.86806597    -0.82700
O402        O  0.73529664  0.24391290  0.83182079    -0.77600
O403        O  0.67018238  0.22277729  0.94753795    -0.79400
O404        O  0.61248967  0.25066611  0.78309553    -0.82100
C405        C  0.74328871  0.27357820  0.85388518     0.98600
C406        C  0.73880735  0.17743982  0.90162767     1.06100
O407        O  0.67000744  0.23469540  0.86173154    -1.11100
O408        O  0.60707972  0.18953595  0.84325763    -0.73500
O409        O  0.64731623  0.16986592  0.80860999    -0.77000
O410        O  0.73082695  0.28106406  0.88507550    -0.77700
C411        C  0.61983468  0.16465569  0.82342039     0.97600
O412        O  0.66671070  0.24022705  0.77233740    -0.75700
O413        O  0.61669583  0.24379831  0.91167145    -0.80900
C414        C  0.65010826  0.31774246  0.88476033     1.00200
C415        C  0.63807759  0.23293712  0.94582263     1.06100
O416        O  0.67063708  0.30027333  0.91525624    -0.76500
C417        C  0.63447982  0.25149885  0.75967876     1.04400
C418        C  0.68707877  0.34409708  0.62191607     0.33800
C419        C  0.65579674  0.29309923  0.66323337     0.31400
C420        C  0.65685785  0.35874010  0.64083095    -0.04800
C421        C  0.66753959  0.31195110  0.59458995    -0.05500
C422        C  0.71302655  0.32293143  0.65760709    -0.05400
C423        C  0.64172731  0.33373927  0.66348344    -0.04800
C424        C  0.65128092  0.28575664  0.61574113    -0.05500
C425        C  0.69719560  0.29673514  0.67859434    -0.05400
C426        C  0.62064011  0.35535412  0.68352474    -0.30800
N427        N  0.62126411  0.39152454  0.67170697     0.15700
C428        C  0.64284877  0.39339523  0.64488846    -0.30800
H429        H  0.65197794  0.41917577  0.63415940     0.17600
C430        C  0.63968574  0.25675420  0.58813375    -0.29800
N431        N  0.64763208  0.26494500  0.55116884     0.14400
C432        C  0.66510734  0.29811897  0.55503246    -0.29800
C433        C  0.72298059  0.26884435  0.69093893    -0.30100
N434        N  0.75347543  0.27741657  0.67926728     0.14900
H435        H  0.71884040  0.24249313  0.70477526     0.17500
C436        C  0.74763932  0.31013723  0.65865225    -0.30100
H437        H  0.76572909  0.32192752  0.64162513     0.17500
H438        H  0.67738510  0.30990580  0.53175181     0.17500
H439        H  0.60997813  0.34720159  0.70947391     0.17600
H440        H  0.62878114  0.23056446  0.59530347     0.17600
Fe441      Fe  0.80253176  0.45042677  0.71693724     1.65800
Fe442      Fe  0.87411068  0.49111083  0.69562729     1.73200
Fe443      Fe  0.78416413  0.99513120  0.62886688     1.54400
O444        O  0.75443620  0.45446849  0.61983374    -0.80200
O445        O  0.85634607  0.04598337  0.68567492    -0.78500
O446        O  0.78240814  0.41472680  0.66801331    -0.82700
O447        O  0.75662075  0.48359641  0.70477707    -0.77600
O448        O  0.82288435  0.46976973  0.59509948    -0.79400
O449        O  0.87659487  0.49755563  0.76083722    -0.82100
C450        C  0.74926879  0.51573870  0.68848597     0.98600
C451        C  0.75586250  0.42320532  0.63817166     1.06100
O452        O  0.82313279  0.48011578  0.68040161    -1.11100
O453        O  0.88778557  0.43517647  0.70169355    -0.73500
O454        O  0.84658362  0.41561245  0.73411268    -0.77000
O455        O  0.75525585  0.02491466  0.66205140    -0.77700
C456        C  0.87506534  0.41059470  0.72156211     0.97600
O457        O  0.82184556  0.48365415  0.76802297    -0.75700
O458        O  0.86793853  0.98810745  0.62727903    -0.80900
C459        C  0.83431610  0.06217493  0.65541681     1.00200
C460        C  0.85515357  0.47961840  0.59746124     1.06100
O461        O  0.81263117  0.04423107  0.62642019    -0.76500
C462        C  0.85274720  0.49774185  0.78218389     1.04400
Fe463      Fe  0.61394440  0.49649631  0.82994329     1.65800
Fe464      Fe  0.66924009  0.45682454  0.77875636     1.73200
Fe465      Fe  0.59435640  0.98986809  0.74195431     1.54400
O466        O  0.54619666  0.48194589  0.74312083    -0.80200
O467        O  0.68461439  0.50169203  0.74954400    -0.78500
O468        O  0.56240693  0.47419263  0.81280269    -0.82700
O469        O  0.60280319  0.04920176  0.82497530    -0.77600
O470        O  0.59234566  0.43867151  0.70178690    -0.79400
O471        O  0.69618069  0.47684871  0.83600028    -0.82100
C472        C  0.59880286  0.06440151  0.78924672     0.98600
C473        C  0.53897687  0.47345821  0.77765867     1.06100
O474        O  0.62401347  0.48179699  0.77705075    -1.11100
O475        O  0.65147877  0.41302458  0.80691173    -0.73500
O476        O  0.63202706  0.44425658  0.85637849    -0.77000
O477        O  0.59520049  0.04590529  0.75559617    -0.77700
C478        C  0.63869960  0.41396784  0.83901288     0.97600
O479        O  0.67334921  0.02501814  0.86057166    -0.75700
O480        O  0.65163798  0.43124358  0.72221493    -0.80900
C481        C  0.66797091  0.51335280  0.71329431     1.00200
C482        C  0.62118735  0.42162085  0.70009558     1.06100
O483        O  0.63337284  0.00146806  0.71031451    -0.76500
C484        C  0.69419825  0.51019514  0.84667403     1.04400
Fe485      Fe  0.86662750  0.24276618  0.70647467     1.65800
Fe486      Fe  0.81043745  0.20208726  0.75642787     1.73200
Fe487      Fe  0.88565814  0.24220214  0.81268745     1.54400
O488        O  0.93274629  0.23190405  0.79499470    -0.80200
O489        O  0.79171599  0.24724725  0.78304628    -0.78500
O490        O  0.91884915  0.22174597  0.72573062    -0.82700
O491        O  0.88473868  0.29537165  0.72758951    -0.77600
O492        O  0.88782465  0.18791459  0.83317235    -0.79400
O493        O  0.78402176  0.22140662  0.69835066    -0.82100
C494        C  0.88738053  0.31289493  0.76187651     0.98600
C495        C  0.94147774  0.22299176  0.76143741     1.06100
O496        O  0.85513305  0.22874200  0.75855811    -1.11100
O497        O  0.83079345  0.15858035  0.72964361    -0.73500
O498        O  0.85069702  0.18976222  0.68078803    -0.77000
O499        O  0.88594008  0.29711420  0.79581390    -0.77700
C500        C  0.84441340  0.15951259  0.69816761     0.97600
O501        O  0.81587358  0.26839868  0.68631573    -0.75700
O502        O  0.82904270  0.17744397  0.81392633    -0.80900
C503        C  0.80921525  0.26425681  0.81560555     1.00200
C504        C  0.86047697  0.16914072  0.83504290     1.06100
O505        O  0.84096977  0.25479623  0.83559564    -0.76500
C506        C  0.78566764  0.25473368  0.68737195     1.04400
C507        C  0.19312404  0.09685031  0.64123163     0.31400
C508        C  0.16867154  0.04286332  0.68616844     0.31400
C509        C  0.16623978  0.10928813  0.66644785    -0.04800
C510        C  0.17151417  0.06516606  0.61508696    -0.05500
C511        C  0.22309435  0.07553146  0.67368885    -0.05400
C512        C  0.15449194  0.08264036  0.69019602    -0.04800
C513        C  0.15920627  0.03720735  0.63817576    -0.05500
C514        C  0.21002325  0.04740386  0.69577569    -0.05400
C515        C  0.13326839  0.10145674  0.71231956    -0.30800
N516        N  0.12994674  0.13771427  0.70046471     0.15700
C517        C  0.14989550  0.14245313  0.67228623    -0.30800
H518        H  0.15543472  0.16948894  0.66105631     0.17600
C519        C  0.15164410  0.00636910  0.61252440    -0.29800
N520        N  0.15773274  0.01505593  0.57486942     0.14400
C521        C  0.17084804  0.05017696  0.57651897    -0.29800
C522        C  0.23552633  0.01901171  0.70214446    -0.30100
N523        N  0.26387675  0.02866924  0.68709753     0.14900
H524        H  0.22242367  0.49110652  0.70657985     0.17500
C525        C  0.25700523  0.06286568  0.67018463    -0.30100
H526        H  0.27476849  0.07586173  0.65390580     0.17500
H527        H  0.18249931  0.06242672  0.55294000     0.17500
H528        H  0.12491454  0.09142385  0.73925122     0.17600
H529        H  0.13518240  0.47653325  0.61930781     0.17600
Fe530      Fe  0.30548700  0.18772383  0.71617122     1.65800
Fe531      Fe  0.37682440  0.23011325  0.69565123     1.73200
Fe532      Fe  0.29264198  0.24427270  0.63353543     1.54400
O533        O  0.25842975  0.19678499  0.62078726    -0.80200
O534        O  0.36888009  0.28592232  0.69371967    -0.78500
O535        O  0.28651669  0.15322315  0.66554157    -0.82700
O536        O  0.25714940  0.21577031  0.70381884    -0.77600
O537        O  0.32102501  0.22310534  0.59362202    -0.79400
O538        O  0.37905134  0.23462785  0.76070476    -0.82100
C539        C  0.25314291  0.25059199  0.69975243     0.98600
C540        C  0.26282532  0.16277709  0.63276537     1.06100
O541        O  0.32551431  0.22045165  0.68127931    -1.11100
O542        O  0.38975596  0.17406473  0.69946986    -0.73500
O543        O  0.35094074  0.15534676  0.73506853    -0.77000
O544        O  0.26516981  0.26836617  0.67324417    -0.77700
C545        C  0.37923657  0.15055588  0.72236426     0.97600
O546        O  0.32348392  0.22168684  0.76675066    -0.75700
O547        O  0.37798270  0.23031630  0.63181613    -0.80900
C548        C  0.34817013  0.30669241  0.66739991     1.00200
C549        C  0.35460241  0.22674503  0.59658333     1.06100
O550        O  0.32159689  0.29430906  0.63924030    -0.76500
C551        C  0.35440462  0.23598066  0.78094049     1.04400
C552        C  0.30436702  0.34141062  0.91762019     0.31400
C553        C  0.32679129  0.28701581  0.87169743     0.31400
C554        C  0.32845024  0.35408690  0.88974613    -0.04800
C555        C  0.32786595  0.31085658  0.94364382    -0.05500
C556        C  0.27426503  0.31908512  0.88823756    -0.05400
C557        C  0.33909683  0.32704933  0.86509227    -0.04800
C558        C  0.33919306  0.28226447  0.91986343    -0.05500
C559        C  0.28554370  0.29111305  0.86486926    -0.05400
C560        C  0.35388279  0.34624786  0.83687778    -0.30800
N561        N  0.35444901  0.38323628  0.84605606     0.15700
C562        C  0.33888979  0.38808283  0.87831409    -0.30800
H563        H  0.33164696  0.41488925  0.88906808     0.17600
C564        C  0.34365905  0.25066954  0.94450595    -0.29800
N565        N  0.33784167  0.25959947  0.98227953     0.14400
C566        C  0.32708085  0.29559021  0.98152219    -0.29800
C567        C  0.25869664  0.26440951  0.85848387    -0.30100
N568        N  0.23142660  0.27599297  0.87517007     0.14900
H569        H  0.26001542  0.23705449  0.84509131     0.17500
C570        C  0.24082110  0.30909836  0.89387748    -0.30100
H571        H  0.22628738  0.32302198  0.91392086     0.17500
H572        H  0.31722302  0.29990681  0.51226268     0.17500
H573        H  0.35976979  0.33506271  0.80876398     0.17600
H574        H  0.34692453  0.22254477  0.93409133     0.17600
Fe575      Fe  0.18884893  0.44831421  0.84111746     1.65800
Fe576      Fe  0.12137244  0.49268898  0.86799303     1.73200
Fe577      Fe  0.20076523  0.99185842  0.93615682     1.54400
O578        O  0.24043445  0.44880317  0.93732679    -0.80200
O579        O  0.13495072  0.04781256  0.87344972    -0.78500
O580        O  0.20634002  0.41254045  0.88997134    -0.82700
O581        O  0.23784425  0.47626045  0.85308547    -0.77600
O582        O  0.17528231  0.47113882  0.96637107    -0.79400
O583        O  0.11635898  0.49775176  0.80246290    -0.82100
C584        C  0.25152552  0.50547233  0.87281869     0.98600
C585        C  0.23579392  0.41878413  0.91622198     1.06100
O586        O  0.17219908  0.48021169  0.87954746    -1.11100
O587        O  0.10631393  0.43684653  0.86235186    -0.73500
O588        O  0.14243682  0.41695411  0.82335618    -0.77000
O589        O  0.23647657  0.01673162  0.90851041    -0.77700
C590        C  0.11576331  0.41234378  0.83913879     0.97600
O591        O  0.16997115  0.48291880  0.79126376    -0.75700
O592        O  0.11447973  0.99211759  0.92725919    -0.80900
C593        C  0.15566489  0.06274210  0.90564524     1.00200
C594        C  0.14377060  0.48259819  0.96584319     1.06100
O595        O  0.17546763  0.04373610  0.93529854    -0.76500
C596        C  0.13852996  0.49684471  0.77899156     1.04400
Fe597      Fe  0.11879644  0.24505769  0.85678227     1.65800
Fe598      Fe  0.17480419  0.20142542  0.80905029     1.73200
Fe599      Fe  0.09935869  0.23995992  0.74997228     1.54400
O600        O  0.05272681  0.22911832  0.76822860    -0.80200
O601        O  0.19276786  0.24481888  0.77912252    -0.78500
O602        O  0.06630025  0.22506494  0.83837351    -0.82700
O603        O  0.10145407  0.29739257  0.83445601    -0.77600
O604        O  0.10001287  0.18476704  0.72925321    -0.79400
O605        O  0.19933243  0.22097845  0.86674186    -0.82100
C606        C  0.09812441  0.31352954  0.79943679     0.98600
C607        C  0.04393165  0.22338131  0.80246267     1.06100
O608        O  0.12980107  0.22830175  0.80492325    -1.11100
O609        O  0.15513097  0.15896095  0.83720342    -0.73500
O610        O  0.13402725  0.19222305  0.88409200    -0.77000
O611        O  0.09767643  0.29595305  0.76564576    -0.77700
C612        C  0.14155491  0.16121237  0.86864658     0.97600
O613        O  0.16985589  0.27060249  0.87538623    -0.75700
O614        O  0.15877946  0.17534027  0.75336040    -0.80900
C615        C  0.17684111  0.25636548  0.74244846     1.00200
C616        C  0.12886616  0.16688847  0.72943099     1.06100
O617        O  0.14320514  0.25240783  0.72648875    -0.76500
C618        C  0.19927716  0.25507385  0.87394908     1.04400
Fe619      Fe  0.36170547  0.49043306  0.68901145     1.65800
Fe620      Fe  0.30584492  0.44837628  0.73725874     1.73200
Fe621      Fe  0.38541988  0.98434918  0.81503848     1.54400
O622        O  0.42817299  0.47353943  0.77585233    -0.80200
O623        O  0.28890996  0.49184667  0.76699746    -0.78500
O624        O  0.41295959  0.46656450  0.70572238    -0.82700
O625        O  0.39446853  0.03816664  0.73430388    -0.77600
O626        O  0.38151538  0.43067007  0.81620392    -0.79400
O627        O  0.28097837  0.47126507  0.68112364    -0.82100
C628        C  0.39396971  0.05555705  0.76770248     0.98600
C629        C  0.43620210  0.46658554  0.74119466     1.06100
O630        O  0.35114647  0.47387975  0.74102990    -1.11100
O631        O  0.32348798  0.40621911  0.70693343    -0.73500
O632        O  0.34136117  0.43988566  0.65851408    -0.77000
O633        O  0.38883006  0.03966876  0.80005828    -0.77700
C634        C  0.33311063  0.40888454  0.67284924     0.97600
O635        O  0.32522201  0.01799333  0.68823736    -0.75700
O636        O  0.32293862  0.42012840  0.79257222    -0.80900
C637        C  0.30478857  0.50608928  0.80187409     1.00200
C638        C  0.35339352  0.41217067  0.81628235     1.06100
O639        O  0.33873276  0.99880800  0.83346762    -0.76500
C640        C  0.28271854  0.50571557  0.67627257     1.04400
C641        C  0.09884053  0.35467887  0.79869130    -0.15000
C642        C  0.09746342  0.37585752  0.83225106    -0.30200
H643        H  0.10681083  0.36737610  0.77247665     0.14000
H644        H  0.08798464  0.36411854  0.85789854     0.14600
C645        C  0.15904215  0.10364112  0.90745163    -0.15000
C646        C  0.13277595  0.12583518  0.88573605    -0.30200
H647        H  0.18539233  0.11525721  0.92187023     0.14000
H648        H  0.10645451  0.11419458  0.87130881     0.14600
C649        C  0.28405512  0.51994266  0.86339383    -0.15000
C650        C  0.28180835  0.52698632  0.82316411    -0.30200
H651        H  0.30941709  0.51031191  0.88365073     0.14000
H652        H  0.25474924  0.03029464  0.81132970     0.14600
C653        C  0.26651780  0.39676974  0.91049881    -0.15000
C654        C  0.28757694  0.37292222  0.93763320    -0.30200
H655        H  0.26645064  0.39430983  0.87751326     0.14000
H656        H  0.28763149  0.37248982  0.97061296     0.14600
C657        C  0.39534828  0.09635366  0.76725633    -0.15000
C658        C  0.39850925  0.11509743  0.73301181    -0.30200
H659        H  0.38596294  0.11088392  0.79162157     0.14000
H660        H  0.40923965  0.10160198  0.70908452     0.14600
C661        C  0.35503481  0.34672937  0.67326388    -0.15000
C662        C  0.33499071  0.37371613  0.65071273    -0.30200
H663        H  0.37462014  0.35450585  0.70213686     0.14000
H664        H  0.31516319  0.36779966  0.62155683     0.14600
C665        C  0.33633072  0.25560462  0.84475818    -0.15000
C666        C  0.36039241  0.25745760  0.82091172    -0.30200
H667        H  0.31824357  0.23197804  0.83967465     0.14000
H668        H  0.38164539  0.27799454  0.82751373     0.14600
C669        C  0.36588808  0.23240737  0.55719650    -0.15000
C670        C  0.34254577  0.22718454  0.51962524    -0.30200
H671        H  0.38963299  0.24934882  0.55896737     0.14000
H672        H  0.31885264  0.21008617  0.51758894     0.14600
C673        C  0.19820510  0.27046497  0.71462267    -0.15000
C674        C  0.23402032  0.26948538  0.72686356    -0.30200
H675        H  0.18515611  0.27093450  0.68121661     0.14000
H676        H  0.24709784  0.26788357  0.76017229     0.14600
C677        C  0.23796401  0.13318173  0.61107406    -0.15000
C678        C  0.20551518  0.13059194  0.61959892    -0.30200
H679        H  0.25007909  0.10832202  0.60193018     0.14000
H680        H  0.19402852  0.15723968  0.62475046     0.14600
C681        C  0.15872458  0.01181852  0.71337153    -0.15000
C682        C  0.13549589  0.01503702  0.73814185    -0.30200
H683        H  0.17631116  0.98765894  0.71865700     0.14000
H684        H  0.10597607  0.53414260  0.73083733     0.14600
C685        C  0.15984049  0.98916593  0.54251846    -0.15000
C686        C  0.12235072  0.98975107  0.00058546    -0.30200
H687        H  0.18612935  0.97698438  0.54371501     0.14000
H688        H  0.09916336  0.00815071  0.99724954     0.14600
C689        C  0.98004525  0.21641569  0.76371399    -0.15000
C690        C  0.00543103  0.21723783  0.80053600    -0.30200
H691        H  0.98802899  0.21514807  0.73428560     0.14000
H692        H  0.99741335  0.21789495  0.82996426     0.14600
C693        C  0.50116806  0.46483843  0.77752082    -0.15000
C694        C  0.47478812  0.46173596  0.74173944    -0.30200
H695        H  0.50252024  0.97023060  0.83618885     0.14000
H696        H  0.48174741  0.46084107  0.71169622     0.14600
C697        C  0.89197772  0.37358973  0.72868633    -0.15000
C698        C  0.88861310  0.35370752  0.76194923    -0.30200
H699        H  0.90152340  0.36067952  0.70353011     0.14000
H700        H  0.88062166  0.36776035  0.78758155     0.14600
C701        C  0.83176581  0.10321856  0.65519034    -0.15000
C702        C  0.85501304  0.12364078  0.68358015    -0.30200
H703        H  0.80759183  0.11621372  0.63587400     0.14000
H704        H  0.87853963  0.11038090  0.70384882     0.14600
C705        C  0.72350586  0.53814964  0.70360977    -0.15000
C706        C  0.68885215  0.53077531  0.68692091    -0.30200
H707        H  0.72866244  0.04359223  0.74177984     0.14000
H708        H  0.67979209  0.52522971  0.65342966     0.14600
C709        C  0.72314488  0.40097248  0.63511566    -0.15000
C710        C  0.70825580  0.37468942  0.60638338    -0.30200
H711        H  0.71591151  0.40057170  0.66502410     0.14000
H712        H  0.71577120  0.37197624  0.57682188     0.14600
C713        C  0.60236748  0.10516485  0.78690435    -0.15000
C714        C  0.60352417  0.12738437  0.82002096    -0.30200
H715        H  0.60905056  0.11647120  0.75919934     0.14000
H716        H  0.59512011  0.11693462  0.84702473     0.14600
C717        C  0.65179264  0.35881419  0.88409976    -0.15000
C718        C  0.62902002  0.37810700  0.85390686    -0.30200
H719        H  0.67490855  0.37258271  0.90436727     0.14000
H720        H  0.60668727  0.36388886  0.83281167     0.14600
C721        C  0.62350648  0.26885074  0.71736379    -0.15000
C722        C  0.64297499  0.26291496  0.68885860    -0.30200
H723        H  0.60278358  0.28987482  0.71247739     0.14000
H724        H  0.65794533  0.23691386  0.69143727     0.14600
C725        C  0.62685222  0.23806080  0.98526652    -0.15000
C726        C  0.64735486  0.23916830  0.51771520    -0.30200
H727        H  0.60021667  0.24974543  0.98326737     0.14000
H728        H  0.67300332  0.22628011  0.51725696     0.14600
C729        C  0.76612150  0.30300799  0.84337675    -0.15000
C730        C  0.79492349  0.29905476  0.82783213    -0.30200
H731        H  0.76079967  0.33102343  0.85302345     0.14000
H732        H  0.81062637  0.32382562  0.82609216     0.14600
C733        C  0.77117128  0.15381391  0.90754449    -0.15000
C734        C  0.78462824  0.12735261  0.93678554    -0.30200
H735        H  0.77885179  0.15191677  0.87796047     0.14000
H736        H  0.77626946  0.12551108  0.96587626     0.14600
C737        C  0.86466017  0.01638944  0.82344452    -0.15000
C738        C  0.84416058  0.01167280  0.85123698    -0.30200
H739        H  0.87908544  0.53970470  0.82914422     0.14000
H740        H  0.82835618  0.98637307  0.84825930     0.14600
C741        C  0.85332207  0.98461413  0.55300274    -0.15000
C742        C  0.82711593  0.98351342  0.51720500    -0.30200
H743        H  0.87822503  0.99904395  0.55316107     0.14000
H744        H  0.81566915  0.47246296  0.51828882     0.14600
C745        C  0.80596916  0.59198144  0.42114667     0.31400
C746        C  0.83589549  0.54034695  0.37824291     0.31400
C747        C  0.83259757  0.60690343  0.39755019    -0.04800
C748        C  0.82884590  0.56166467  0.44846300    -0.05500
C749        C  0.77935982  0.56896178  0.38837276    -0.05400
C750        C  0.84722002  0.58121355  0.37454421    -0.04800
C751        C  0.84420493  0.53485192  0.42639596    -0.05500
C752        C  0.79429342  0.54263451  0.36651111    -0.05400
C753        C  0.86282588  0.60215321  0.34855180    -0.30800
N754        N  0.85989667  0.63875144  0.35733873     0.15700
C755        C  0.84134923  0.64189365  0.38709807    -0.30800
H756        H  0.83090992  0.66784696  0.39622518     0.17600
C757        C  0.85218982  0.50402928  0.45210085    -0.29800
N758        N  0.84373052  0.51183805  0.48888377     0.14400
C759        C  0.82849029  0.54621440  0.48642649    -0.29800
C760        C  0.76814205  0.51548328  0.35451488    -0.30100
N761        N  0.73810437  0.52530447  0.36702860     0.14900
H762        H  0.75980315  0.99359627  0.33094938     0.17500
C763        C  0.74482414  0.55764038  0.38818552    -0.30100
H764        H  0.72728002  0.57015374  0.40568661     0.17500
H765        H  0.79505845  0.55729395  0.00408677     0.17500
H766        H  0.87102293  0.59262853  0.32121165     0.17600
H767        H  0.84656092  0.97537867  0.43966791     0.17600
Fe768      Fe  0.68794710  0.69428906  0.33299692     1.65800
Fe769      Fe  0.61796060  0.74016661  0.35249546     1.73200
Fe770      Fe  0.69949225  0.74272369  0.42266952     1.54400
O771        O  0.73474546  0.69637175  0.43170579    -0.80200
O772        O  0.63219040  0.79543308  0.35779783    -0.78500
O773        O  0.70398275  0.65919430  0.38295968    -0.82700
O774        O  0.73626906  0.72372517  0.34761568    -0.77600
O775        O  0.66562149  0.71707873  0.45255108    -0.79400
O776        O  0.61641411  0.74349092  0.28770335    -0.82100
C777        C  0.74829210  0.75334044  0.36789085     0.98600
C778        C  0.73204615  0.66612484  0.41123292     1.06100
O779        O  0.66861493  0.72678476  0.36847362    -1.11100
O780        O  0.60263680  0.68466597  0.34793345    -0.73500
O781        O  0.64193747  0.66226157  0.31413496    -0.77000
O782        O  0.73403571  0.76856622  0.39448332    -0.77700
C783        C  0.61407784  0.65874248  0.32817058     0.97600
O784        O  0.67120294  0.72751001  0.28131440    -0.75700
O785        O  0.61378044  0.74060913  0.41482658    -0.80900
C786        C  0.65297046  0.81149954  0.38915535     1.00200
C787        C  0.63398566  0.72939561  0.44957460     1.06100
O788        O  0.67215410  0.79353724  0.42018096    -0.76500
C789        C  0.64016204  0.74154740  0.26638266     1.04400
C790        C  0.69092941  0.83837082  0.12734427     0.33800
C791        C  0.66542866  0.78483488  0.17124538     0.31400
C792        C  0.66228491  0.85096735  0.14949152    -0.04800
C793        C  0.67104675  0.80600644  0.10072503    -0.05500
C794        C  0.71964721  0.81769937  0.16068505    -0.05400
C795        C  0.65025289  0.82484235  0.17357771    -0.04800
C796        C  0.65787129  0.77834007  0.12324380    -0.05500
C797        C  0.70685434  0.78980126  0.18267735    -0.05400
C798        C  0.62923293  0.84487905  0.19515977    -0.30800
N799        N  0.62638041  0.88095322  0.18217510     0.15700
C800        C  0.64626303  0.88444750  0.15375633    -0.30800
H801        H  0.65270098  0.91079023  0.14154925     0.17600
C802        C  0.64568086  0.74957863  0.09552917    -0.29800
N803        N  0.64990903  0.75951215  0.05722012     0.14400
C804        C  0.66568414  0.79355977  0.06020841    -0.29800
C805        C  0.73358679  0.76236626  0.18978855    -0.30100
N806        N  0.76201731  0.77328942  0.17514321     0.14900
H807        H  0.73126729  0.73480301  0.20190380     0.17500
C808        C  0.75375126  0.80687390  0.15725627    -0.30100
H809        H  0.76940511  0.82048155  0.13844545     0.17500
H810        H  0.67509500  0.80685287  0.03547481     0.17500
H811        H  0.62073687  0.83578296  0.22237619     0.17600
H812        H  0.63671629  0.72258501  0.10318565     0.17600
Fe813      Fe  0.80555777  0.94569821  0.21820281     1.65800
Fe814      Fe  0.87478031  0.99015293  0.19526944     1.73200
Fe815      Fe  0.78326178  0.49376549  0.13138125     1.54400
O816        O  0.75454204  0.95059919  0.12323979    -0.80200
O817        O  0.85813183  0.54423960  0.18395268    -0.78500
O818        O  0.78504972  0.91041943  0.16894931    -0.82700
O819        O  0.75912327  0.97774640  0.20815296    -0.77600
O820        O  0.82172861  0.96680512  0.09619247    -0.79400
O821        O  0.87791881  0.99709262  0.26058913    -0.82100
C822        C  0.75099040  0.01017362  0.19299606     0.98600
C823        C  0.75725418  0.91896550  0.14080772     1.06100
O824        O  0.82429616  0.97695642  0.18146664    -1.11100
O825        O  0.89122764  0.93506274  0.20195656    -0.73500
O826        O  0.85052918  0.91218099  0.23319092    -0.77000
O827        O  0.75575766  0.52406958  0.16594022    -0.77700
C828        C  0.87943517  0.90925342  0.22107084     0.97600
O829        O  0.82490254  0.97847965  0.26938997    -0.75700
O830        O  0.86624227  0.48474594  0.12596333    -0.80900
C831        C  0.83547537  0.56008870  0.15396288     1.00200
C832        C  0.85344167  0.97770350  0.09708932     1.06100
O833        O  0.81177004  0.54218999  0.12717904    -0.76500
C834        C  0.85459684  0.99515890  0.28256341     1.04400
Fe835      Fe  0.61371621  0.99170872  0.33346579     1.65800
Fe836      Fe  0.67144756  0.94995112  0.28698292     1.73200
Fe837      Fe  0.59548832  0.48476983  0.24522519     1.54400
O838        O  0.54756908  0.97414021  0.24588067    -0.80200
O839        O  0.68668725  0.99362317  0.25555174    -0.78500
O840        O  0.56217350  0.96924627  0.31588173    -0.82700
O841        O  0.60488534  0.54341378  0.32950583    -0.77600
O842        O  0.59586136  0.92864162  0.20916786    -0.79400
O843        O  0.69692777  0.97261018  0.34311579    -0.82100
C844        C  0.59823778  0.55879088  0.29366086     0.98600
C845        C  0.53932445  0.96767514  0.28032041     1.06100
O846        O  0.62536120  0.97461843  0.28233379    -1.11100
O847        O  0.65446308  0.90724219  0.31759929    -0.73500
O848        O  0.63112103  0.94035143  0.36269434    -0.77000
O849        O  0.59516046  0.54062741  0.25983924    -0.77700
C850        C  0.64006183  0.90945313  0.34840044     0.97600
O851        O  0.67615512  0.51781914  0.36359292    -0.75700
O852        O  0.65511230  0.92156862  0.23234128    -0.80900
C853        C  0.67023774  0.00437655  0.21883552     1.00200
C854        C  0.62510620  0.91132313  0.20970639     1.06100
O855        O  0.63408350  0.49733648  0.21343628    -0.76500
C856        C  0.69416548  0.00645685  0.35097247     1.04400
Fe857      Fe  0.87499913  0.74211123  0.20113243     1.65800
Fe858      Fe  0.81618893  0.69822775  0.24335446     1.73200
Fe859      Fe  0.88693602  0.74039931  0.30711540     1.54400
O860        O  0.93610274  0.72894779  0.29426237    -0.80200
O861        O  0.79397740  0.74173702  0.26735956    -0.78500
O862        O  0.92666508  0.72155633  0.22455536    -0.82700
O863        O  0.89156885  0.79466312  0.22393690    -0.77600
O864        O  0.88702940  0.68675789  0.32928327    -0.79400
O865        O  0.79459018  0.71758706  0.18434504    -0.82100
C866        C  0.89285964  0.81143581  0.25832937     0.98600
C867        C  0.94707567  0.72124092  0.26166998     1.06100
O868        O  0.86058111  0.72641603  0.25103827    -1.11100
O869        O  0.83968660  0.65587462  0.21916517    -0.73500
O870        O  0.86147153  0.68909674  0.17334461    -0.77000
O871        O  0.88948631  0.79502153  0.29104212    -0.77700
C872        C  0.85396234  0.65808463  0.18835802     0.97600
O873        O  0.82420325  0.76752863  0.17829300    -0.75700
O874        O  0.82974335  0.67327623  0.30098337    -0.80900
C875        C  0.80644854  0.75739675  0.30245775     1.00200
C876        C  0.85923467  0.66740531  0.32760502     1.06100
O877        O  0.83920850  0.75412075  0.32367930    -0.76500
C878        C  0.79451544  0.75191680  0.17763266     1.04400
C879        C  0.19527148  0.59812206  0.14248645     0.31400
C880        C  0.17003167  0.54420132  0.18683767     0.31400
C881        C  0.16867192  0.61081770  0.16791054    -0.04800
C882        C  0.17330756  0.56680703  0.11601421    -0.05500
C883        C  0.22487758  0.57644492  0.17496626    -0.05400
C884        C  0.15643795  0.58415406  0.19131714    -0.04800
C885        C  0.16063458  0.53887070  0.13872357    -0.05500
C886        C  0.21141939  0.54841647  0.19675055    -0.05400
C887        C  0.13660532  0.60332151  0.21479992    -0.30800
N888        N  0.13462390  0.63984158  0.20408339     0.15700
C889        C  0.15416425  0.64447763  0.17552128    -0.30800
H890        H  0.16086317  0.67152113  0.16536466     0.17600
C891        C  0.15261134  0.50833322  0.11251868    -0.29800
N892        N  0.15873248  0.51723766  0.07487188     0.14400
C893        C  0.17235260  0.55218598  0.07715337    -0.29800
C894        C  0.23703736  0.52018679  0.20409578    -0.30100
N895        N  0.26579255  0.52993398  0.18980907     0.14900
H896        H  0.22357307  0.99517662  0.21201970     0.17500
C897        C  0.25908412  0.56395753  0.17248831    -0.30100
H898        H  0.27733781  0.57690605  0.15685490     0.17500
H899        H  0.18418807  0.56453263  0.05378368     0.17500
H900        H  0.12842653  0.59313737  0.24178331     0.17600
H901        H  0.13451238  0.97663663  0.12038797     0.17600
Fe902      Fe  0.30864588  0.68882954  0.22014554     1.65800
Fe903      Fe  0.37929788  0.73183799  0.19831763     1.73200
Fe904      Fe  0.29461624  0.74551898  0.13741617     1.54400
O905        O  0.26064076  0.69800828  0.12514182    -0.80200
O906        O  0.37101773  0.78780388  0.19616150    -0.78500
O907        O  0.28908425  0.65436031  0.16954651    -0.82700
O908        O  0.26041132  0.71685854  0.20859932    -0.77600
O909        O  0.32237306  0.72455571  0.09674181    -0.79400
O910        O  0.38213095  0.73672349  0.26358781    -0.82100
C911        C  0.25674812  0.75173866  0.20508012     0.98600
C912        C  0.26536455  0.66396958  0.13678261     1.06100
O913        O  0.32808675  0.72174231  0.18476866    -1.11100
O914        O  0.39257129  0.67565849  0.20234631    -0.73500
O915        O  0.35415760  0.65647836  0.23828934    -0.77000
O916        O  0.26792739  0.76949790  0.17792368    -0.77700
C917        C  0.38222098  0.65182994  0.22510552     0.97600
O918        O  0.32708627  0.72273617  0.27066210    -0.75700
O919        O  0.37961261  0.73185989  0.13406292    -0.80900
C920        C  0.34968260  0.80841261  0.17021892     1.00200
C921        C  0.35583189  0.72834569  0.09906796     1.06100
O922        O  0.32306097  0.79570144  0.14243663    -0.76500
C923        C  0.35777772  0.73765264  0.28429428     1.04400
C924        C  0.30634303  0.84294201  0.42021447     0.31400
C925        C  0.32965538  0.78869518  0.37491962     0.31400
C926        C  0.33077874  0.85570780  0.39289051    -0.04800
C927        C  0.32964202  0.81243009  0.44663975    -0.05500
C928        C  0.27657211  0.82055216  0.39050441    -0.05400
C929        C  0.34181245  0.82877398  0.36845147    -0.04800
C930        C  0.34165656  0.78394791  0.42310303    -0.05500
C931        C  0.28828952  0.79237943  0.36764569    -0.05400
C932        C  0.35641194  0.84811624  0.34019572    -0.30800
N933        N  0.35652825  0.88509543  0.34925137     0.15700
C934        C  0.34092603  0.88978598  0.38146351    -0.30800
H935        H  0.33330994  0.91651487  0.39203269     0.17600
C936        C  0.34473258  0.75196401  0.44699135    -0.29800
N937        N  0.33696468  0.76027928  0.48387397     0.14400
C938        C  0.32660236  0.79634694  0.48333049    -0.29800
C939        C  0.26205743  0.76503266  0.36256562    -0.30100
N940        N  0.23471425  0.77651112  0.37918394     0.14900
H941        H  0.26394754  0.73736244  0.35019750     0.17500
C942        C  0.24342805  0.81017374  0.39662193    -0.30100
H943        H  0.22881370  0.82419726  0.41651529     0.17500
H944        H  0.31809171  0.80182488  0.01329708     0.17500
H945        H  0.36230567  0.83703560  0.31204178     0.17600
H946        H  0.34787825  0.72395387  0.43616202     0.17600
Fe947      Fe  0.19029237  0.94986460  0.34268571     1.65800
Fe948      Fe  0.12225353  0.99306912  0.36903795     1.73200
Fe949      Fe  0.20093993  0.49026100  0.43595558     1.54400
O950        O  0.24120516  0.94990307  0.43933529    -0.80200
O951        O  0.13537589  0.54644724  0.37306047    -0.78500
O952        O  0.20795584  0.91372486  0.39114072    -0.82700
O953        O  0.23911964  0.97828559  0.35537645    -0.77600
O954        O  0.17510160  0.97091600  0.46689657    -0.79400
O955        O  0.11710871  0.99746512  0.30350118    -0.82100
C956        C  0.25267736  0.00722899  0.37585402     0.98600
C957        C  0.23711824  0.92005875  0.41787877     1.06100
O958        O  0.17317984  0.98117759  0.38102022    -1.11100
O959        O  0.10825328  0.93731589  0.36493152    -0.73500
O960        O  0.14390977  0.91829438  0.32496976    -0.77000
O961        O  0.23694986  0.51552815  0.40920682    -0.77700
C962        C  0.11807222  0.91290613  0.34204071     0.97600
O963        O  0.17137818  0.98481843  0.29307478    -0.75700
O964        O  0.11486490  0.49053633  0.42700981    -0.80900
C965        C  0.15658802  0.56110384  0.40510602     1.00200
C966        C  0.14356879  0.98231738  0.46622485     1.06100
O967        O  0.17556173  0.54189975  0.43512533    -0.76500
C968        C  0.13957097  0.99774327  0.28043010     1.04400
Fe969      Fe  0.12277012  0.74484330  0.36154429     1.65800
Fe970      Fe  0.17936578  0.70259680  0.31349368     1.73200
Fe971      Fe  0.10408676  0.74090189  0.25486911     1.54400
O972        O  0.05761052  0.72939476  0.27281714    -0.80200
O973        O  0.19723213  0.74705720  0.28527843    -0.78500
O974        O  0.07057302  0.72438858  0.34281131    -0.82700
O975        O  0.10513065  0.79732936  0.33964825    -0.77600
O976        O  0.10495999  0.68602976  0.23402637    -0.79400
O977        O  0.20300977  0.72120155  0.37186481    -0.82100
C978        C  0.10198228  0.81360575  0.30468739     0.98600
C979        C  0.04855535  0.72287967  0.30672795     1.06100
O980        O  0.13423313  0.72899670  0.30965798    -1.11100
O981        O  0.15936935  0.65935160  0.34006824    -0.73500
O982        O  0.13814310  0.69163602  0.38764489    -0.77000
O983        O  0.10198472  0.79633903  0.27093717    -0.77700
C984        C  0.14535091  0.66095060  0.37122897     0.97600
O985        O  0.17356381  0.77068921  0.38073875    -0.75700
O986        O  0.16394685  0.67773624  0.25674068    -0.80900
C987        C  0.18157960  0.75885296  0.24865058     1.00200
C988        C  0.13388975  0.66876304  0.23340479     1.06100
O989        O  0.14812106  0.75424216  0.23200550    -0.76500
C990        C  0.20295838  0.75530195  0.37902030     1.04400
Fe991      Fe  0.36183637  0.99152092  0.19171508     1.65800
Fe992      Fe  0.30631415  0.95038217  0.24109845     1.73200
Fe993      Fe  0.38827352  0.48547811  0.31819639     1.54400
O994        O  0.42873823  0.97476756  0.27762957    -0.80200
O995        O  0.29014265  0.99386671  0.27150710    -0.78500
O996        O  0.41267177  0.96642018  0.20773308    -0.82700
O997        O  0.39728515  0.53878110  0.23679285    -0.77600
O998        O  0.38292016  0.93264678  0.31903110    -0.79400
O999        O  0.28084876  0.97403614  0.18548198    -0.82100
C1000       C  0.39714801  0.55641787  0.27017396     0.98600
C1001       C  0.43622286  0.96644962  0.24300592     1.06100
O1002       O  0.35165737  0.97547039  0.24408812    -1.11100
O1003       O  0.32303462  0.90794703  0.21013404    -0.73500
O1004       O  0.34033820  0.94138607  0.16124943    -0.77000
O1005       O  0.39217677  0.54074883  0.30279208    -0.77700
C1006       C  0.33238518  0.91042504  0.17588775     0.97600
O1007       O  0.32731534  0.51926600  0.19169277    -0.75700
O1008       O  0.32428579  0.92183926  0.29609736    -0.80900
C1009       C  0.30649272  0.00824629  0.30610796     1.00200
C1010       C  0.35497365  0.91400065  0.31940167     1.06100
O1011       O  0.34210204  0.50050921  0.33744304    -0.76500
C1012       C  0.28315440  0.00847219  0.18053494     1.04400
C1013       C  0.10217562  0.85459216  0.30354207    -0.15000
C1014       C  0.10103383  0.87591451  0.33687332    -0.30200
H1015       H  0.10921090  0.86725126  0.27671238     0.14000
H1016       H  0.09250750  0.86427372  0.36323093     0.14600
C1017       C  0.16184521  0.60170869  0.40644621    -0.15000
C1018       C  0.13590633  0.62528261  0.38706647    -0.30200
H1019       H  0.18902590  0.61200031  0.41928856     0.14000
H1020       H  0.10860089  0.61526738  0.37455844     0.14600
C1021       C  0.28561570  0.02178954  0.36751880    -0.15000
C1022       C  0.28401060  0.02963269  0.32763170    -0.30200
H1023       H  0.31065009  0.01132734  0.38773134     0.14000
H1024       H  0.25916831  0.53462509  0.31688598     0.14600
C1025       C  0.26819141  0.89826389  0.41263058    -0.15000
C1026       C  0.28915287  0.87443362  0.43991977    -0.30200
H1027       H  0.26847153  0.89583643  0.37974660     0.14000
H1028       H  0.28884851  0.87393672  0.47279181     0.14600
C1029       C  0.39875475  0.59727381  0.26952883    -0.15000
C1030       C  0.40131477  0.61609400  0.23504180    -0.30200
H1031       H  0.39007543  0.61190896  0.29432751     0.14000
H1032       H  0.41128663  0.60253175  0.21057242     0.14600
C1033       C  0.35570779  0.84865035  0.17597266    -0.15000
C1034       C  0.33444482  0.87515292  0.15394222    -0.30200
H1035       H  0.37568674  0.85685380  0.20433376     0.14000
H1036       H  0.31407171  0.86869013  0.12540917     0.14600
C1037       C  0.33971549  0.75734760  0.34817492    -0.15000
C1038       C  0.36366830  0.75939503  0.32414033    -0.30200
H1039       H  0.32205823  0.73337853  0.34350363     0.14000
H1040       H  0.38461472  0.78025790  0.33039524     0.14600
C1041       C  0.36641429  0.73425467  0.05920479    -0.15000
C1042       C  0.34271524  0.72883315  0.02183888    -0.30200
H1043       H  0.39008430  0.75118740  0.06051902     0.14000
H1044       H  0.31911427  0.71171048  0.02026293     0.14600
C1045       C  0.20321997  0.77384153  0.22162289    -0.15000
C1046       C  0.23894352  0.77072708  0.23341361    -0.30200
H1047       H  0.19005334  0.77609584  0.18834941     0.14000
H1048       H  0.25210702  0.76724149  0.26650071     0.14600
C1049       C  0.24105792  0.63436625  0.11420765    -0.15000
C1050       C  0.20791647  0.63161590  0.12075542    -0.30200
H1051       H  0.25360315  0.60967053  0.10537455     0.14000
H1052       H  0.19581375  0.65820891  0.12480629     0.14600
C1053       C  0.15973869  0.51306548  0.21368098    -0.15000
C1054       C  0.13677199  0.51627537  0.23880205    -0.30200
H1055       H  0.17669439  0.48842417  0.21798725     0.14000
H1056       H  0.10666369  0.03497868  0.23273499     0.14600
C1057       C  0.16092859  0.49150672  0.04224571    -0.15000
C1058       C  0.12327041  0.48803945  0.50059882    -0.30200
H1059       H  0.18728636  0.47959145  0.04325228     0.14000
H1060       H  0.09902456  0.50482905  0.49741235     0.14600
C1061       C  0.98582406  0.71431294  0.26645958    -0.15000
C1062       C  0.01008031  0.71606259  0.30396263    -0.30200
H1063       H  0.99500389  0.71248693  0.23780361     0.14000
H1064       H  0.00109402  0.71736044  0.33276199     0.14600
C1065       C  0.50101050  0.96083305  0.27950220    -0.15000
C1066       C  0.47460324  0.95965849  0.24350035    -0.30200
H1067       H  0.50414181  0.46527957  0.33951293     0.14000
H1068       H  0.48161798  0.95865594  0.21349702     0.14600
C1069       C  0.89792349  0.87305491  0.22757265    -0.15000
C1070       C  0.89467604  0.85215755  0.26008391    -0.30200
H1071       H  0.90762694  0.86110917  0.20202891     0.14000
H1072       H  0.88638050  0.86535354  0.28602085     0.14600
C1073       C  0.83386264  0.60097030  0.15164311    -0.15000
C1074       C  0.86162603  0.62258961  0.17025909    -0.30200
H1075       H  0.80735242  0.61353671  0.13987067     0.14000
H1076       H  0.88828179  0.61049641  0.18215928     0.14600
C1077       C  0.72509351  0.03110687  0.20932815    -0.15000
C1078       C  0.69071376  0.02271537  0.19269650    -0.30200
H1079       H  0.72788348  0.54132678  0.24557259     0.14000
H1080       H  0.68165483  0.01763035  0.15909503     0.14600
C1081       C  0.72504896  0.89638641  0.13933184    -0.15000
C1082       C  0.70944279  0.87041169  0.11055851    -0.30200
H1083       H  0.71935909  0.89520110  0.17005658     0.14000
H1084       H  0.71553084  0.86857037  0.08013082     0.14600
C1085       C  0.59803619  0.59976319  0.29111992    -0.15000
C1086       C  0.59659148  0.62195990  0.32364506    -0.30200
H1087       H  0.60507364  0.61173812  0.26394120     0.14000
H1088       H  0.58786062  0.61101623  0.35019431     0.14600
C1089       C  0.65717881  0.85225359  0.38844063    -0.15000
C1090       C  0.63126566  0.87417874  0.36570139    -0.30200
H1091       H  0.68365899  0.86375748  0.40246707     0.14000
H1092       H  0.60471396  0.86276660  0.35192285     0.14600
C1093       C  0.63244741  0.75872513  0.22387237    -0.15000
C1094       C  0.65520234  0.75435611  0.19867128    -0.30200
H1095       H  0.61006903  0.77793551  0.21553983     0.14000
H1096       H  0.67298079  0.73030385  0.20451568     0.14600
C1097       C  0.62246294  0.73668941  0.48831295    -0.15000
C1098       C  0.64805154  0.73495903  0.02231701    -0.30200
H1099       H  0.59613857  0.74942558  0.48549496     0.14000
H1100       H  0.67203988  0.71860543  0.02240260     0.14600
C1101       C  0.78069249  0.76955333  0.36023914    -0.15000
C1102       C  0.78006511  0.77622120  0.32035647    -0.30200
H1103       H  0.80588909  0.76242186  0.38258806     0.14000
H1104       H  0.75411022  0.78208569  0.29859655     0.14600
C1105       C  0.76420339  0.64457400  0.40913921    -0.15000
C1106       C  0.78499930  0.62198816  0.43831044    -0.30200
H1107       H  0.76673424  0.64209497  0.37703002     0.14000
H1108       H  0.78274498  0.62159105  0.47052121     0.14600
C1109       C  0.86834316  0.51525004  0.32379842    -0.15000
C1110       C  0.84856886  0.51001854  0.35223442    -0.30200
H1111       H  0.87969755  0.03761595  0.32959406     0.14000
H1112       H  0.83373832  0.48412038  0.35007004     0.14600
C1113       C  0.84902021  0.48200084  0.05146580    -0.15000
C1114       C  0.82141907  0.48495885  0.01702660    -0.30200
H1115       H  0.87509866  0.49323129  0.05052618     0.14000
H1116       H  0.80980849  0.97477592  0.02014323     0.14600
C1117       C  0.79321748  0.59453523  0.91772513     0.31400
C1118       C  0.82407547  0.54291109  0.87562023     0.31400
C1119       C  0.82626155  0.60736622  0.90320137    -0.04800
C1120       C  0.80907998  0.56021451  0.94354661    -0.05500
C1121       C  0.76771756  0.57624989  0.87926881    -0.05400
C1122       C  0.84052385  0.58253178  0.87900720    -0.04800
C1123       C  0.82528277  0.53362115  0.92223969    -0.05500
C1124       C  0.78337649  0.54975679  0.85782946    -0.05400
C1125       C  0.85749222  0.60515300  0.85549603    -0.30800
N1126       N  0.85741608  0.64106600  0.86889085     0.15700
C1127       C  0.83977494  0.64199470  0.89948117    -0.30800
H1128       H  0.83133351  0.66752117  0.91192553     0.17600
C1129       C  0.83335451  0.50300210  0.94838055    -0.29800
N1130       N  0.82312892  0.51065805  0.98430331     0.14400
C1131       C  0.80790981  0.54511129  0.98134868    -0.29800
C1132       C  0.75681937  0.52332440  0.84338646    -0.30100
N1133       N  0.72618093  0.53275414  0.85447782     0.14900
H1134       H  0.76748500  0.99632414  0.83588029     0.17500
C1135       C  0.73244878  0.56486210  0.87631451    -0.30100
H1136       H  0.71439388  0.57659958  0.89365177     0.17500
H1137       H  0.81475500  0.55747572  0.50883726     0.17500
H1138       H  0.86371300  0.59764737  0.82627845     0.17600
H1139       H  0.85434238  0.97684635  0.94308373     0.17600
Fe1140     Fe  0.68080890  0.71030259  0.81779076     1.65800
Fe1141     Fe  0.60787043  0.74157573  0.84721864     1.73200
Fe1142     Fe  0.69101423  0.75353462  0.91084207     1.54400
O1143       O  0.72876545  0.70888201  0.91808780    -0.80200
O1144       O  0.61386481  0.79765773  0.85075459    -0.78500
O1145       O  0.70749459  0.67354702  0.86188204    -0.82700
O1146       O  0.72509044  0.74758168  0.82680434    -0.77600
O1147       O  0.66302940  0.72412767  0.94496824    -0.79400
O1148       O  0.59993963  0.74597509  0.78123234    -0.82100
C1149       C  0.73264387  0.77721171  0.84891867     0.98600
C1150       C  0.72976067  0.67938661  0.89664074     1.06100
O1151       O  0.66004670  0.73529614  0.85845159    -1.11100
O1152       O  0.60084602  0.68497577  0.84322089    -0.73500
O1153       O  0.63869427  0.67154044  0.80313277    -0.77000
O1154       O  0.71966475  0.78426555  0.87969877    -0.77700
C1155       C  0.61268907  0.66308797  0.81929323     0.97600
O1156       O  0.65501327  0.74401589  0.77055608    -0.75700
O1157       O  0.60778816  0.74124639  0.91136921    -0.80900
C1158       C  0.63407101  0.81673013  0.87962430     1.00200
C1159       C  0.63111825  0.73304051  0.94518350     1.06100
O1160       O  0.65902901  0.80221277  0.90877112    -0.76500
C1161       C  0.62160994  0.75055263  0.75777962     1.04400
C1162       C  0.67706832  0.84346499  0.62661723     0.33800
C1163       C  0.64399042  0.79126400  0.66437104     0.31400
C1164       C  0.64999286  0.85805391  0.65017633    -0.04800
C1165       C  0.65340475  0.81546342  0.59638683    -0.05500
C1166       C  0.70222996  0.81765727  0.65790899    -0.05400
C1167       C  0.63395468  0.83216336  0.67079728    -0.04800
C1168       C  0.63619413  0.78834448  0.61607546    -0.05500
C1169       C  0.68565295  0.79113200  0.67716073    -0.05400
C1170       C  0.61618314  0.85263318  0.69549839    -0.30800
N1171       N  0.61936936  0.88940997  0.68809424     0.15700
C1172       C  0.63976929  0.89274615  0.66014070    -0.30800
H1173       H  0.65052507  0.91878528  0.65219758     0.17600
C1174       C  0.63058248  0.75752582  0.59023951    -0.29800
N1175       N  0.64253437  0.76508728  0.55588034     0.14400
C1176       C  0.65765821  0.79932138  0.56001610    -0.29800
C1177       C  0.71100065  0.76297764  0.68970286    -0.30100
N1178       N  0.74223819  0.77218425  0.67974746     0.14900
H1179       H  0.70653475  0.73670005  0.70347671     0.17500
C1180       C  0.73691443  0.80519860  0.65959388    -0.30100
H1181       H  0.75604837  0.81815558  0.64484979     0.17500
H1182       H  0.67411234  0.80999411  0.54031709     0.17500
H1183       H  0.60617871  0.84253891  0.72125363     0.17600
H1184       H  0.62256374  0.73021762  0.59820835     0.17600
Fe1185     Fe  0.80079534  0.95059525  0.72116657     1.65800
Fe1186     Fe  0.86905871  0.99033515  0.69156592     1.73200
Fe1187     Fe  0.79219971  0.49835699  0.62746084     1.54400
O1188       O  0.74796579  0.94975131  0.62483238    -0.80200
O1189       O  0.86182962  0.54641972  0.69000060    -0.78500
O1190       O  0.77809533  0.91318257  0.67544068    -0.82700
O1191       O  0.75478817  0.98307325  0.71205725    -0.77600
O1192       O  0.81355831  0.96706678  0.59435216    -0.79400
O1193       O  0.87626987  0.99698134  0.75757873    -0.82100
C1194       C  0.74485648  0.01376597  0.69341127     0.98600
C1195       C  0.75074013  0.91971446  0.64584758     1.06100
O1196       O  0.81808896  0.97900529  0.68084682    -1.11100
O1197       O  0.88261681  0.93408530  0.69717485    -0.73500
O1198       O  0.84533631  0.91646820  0.73579598    -0.77000
O1199       O  0.76247925  0.52825206  0.65972322    -0.77700
C1200       C  0.87153039  0.91018773  0.71944787     0.97600
O1201       O  0.82281664  0.98516013  0.76970838    -0.75700
O1202       O  0.87671691  0.48920727  0.63226286    -0.80900
C1203       C  0.84192298  0.56355680  0.65898997     1.00200
C1204       C  0.84502356  0.97778810  0.59390225     1.06100
O1205       O  0.82274440  0.54643289  0.62748956    -0.76500
C1206       C  0.85449843  0.99778795  0.78150427     1.04400
Fe1207     Fe  0.62339088  0.99794604  0.84854153     1.65800
Fe1208     Fe  0.67391803  0.95462874  0.79377059     1.73200
Fe1209     Fe  0.59211682  0.49366765  0.72296057     1.54400
O1210       O  0.55166610  0.97975339  0.76793297    -0.80200
O1211       O  0.68573818  0.99765943  0.75897921    -0.78500
O1212       O  0.57175826  0.97569009  0.83776508    -0.82700
O1213       O  0.59453521  0.54832461  0.80862138    -0.77600
O1214       O  0.59294214  0.93457108  0.72293685    -0.79400
O1215       O  0.70461599  0.97767491  0.84723663    -0.82100
C1216       C  0.59294091  0.56563846  0.77462896     0.98600
C1217       C  0.54671476  0.97328752  0.80405730     1.06100
O1218       O  0.62937385  0.97984467  0.79483139    -1.11100
O1219       O  0.66148918  0.91269229  0.82903260    -0.73500
O1220       O  0.64399936  0.94709313  0.87778053    -0.77000
O1221       O  0.59188071  0.54922439  0.74005790    -0.77700
C1222       C  0.65348414  0.91607987  0.86412980     0.97600
O1223       O  0.66391649  0.52363581  0.84821380    -0.75700
O1224       O  0.65218560  0.92582393  0.74036463    -0.80900
C1225       C  0.66674343  0.00854048  0.72345553     1.00200
C1226       C  0.62104305  0.91741002  0.71911401     1.06100
O1227       O  0.63471271  0.50704410  0.69714585    -0.76500
C1228       C  0.70301421  0.01118981  0.85726451     1.04400
Fe1229     Fe  0.85655493  0.74041250  0.70849761     1.65800
Fe1230     Fe  0.80296504  0.70389495  0.76465189     1.73200
Fe1231     Fe  0.87979732  0.74375366  0.81487820     1.54400
O1232       O  0.92534407  0.73076507  0.79549016    -0.80200
O1233       O  0.78541342  0.75061759  0.78879144    -0.78500
O1234       O  0.90940694  0.72027969  0.72634418    -0.82700
O1235       O  0.87492888  0.79403401  0.72570897    -0.77600
O1236       O  0.88151602  0.68971181  0.83746850    -0.79400
O1237       O  0.77469335  0.71878885  0.70554547    -0.82100
C1238       C  0.88115030  0.81237158  0.75997410     0.98600
C1239       C  0.93295662  0.72164003  0.76141216     1.06100
O1240       O  0.84718104  0.72963729  0.76252490    -1.11100
O1241       O  0.82301990  0.65900117  0.74116086    -0.73500
O1242       O  0.84022255  0.68589505  0.68768397    -0.77000
O1243       O  0.88160110  0.79775309  0.79518242    -0.77700
C1244       C  0.83566367  0.65730802  0.70904595     0.97600
O1245       O  0.80512184  0.76489186  0.68857364    -0.75700
O1246       O  0.82258893  0.68320987  0.82382817    -0.80900
C1247       C  0.80374987  0.76843597  0.82026141     1.00200
C1248       C  0.85406896  0.67222449  0.84151060     1.06100
O1249       O  0.83632208  0.76007772  0.83888162    -0.76500
C1250       C  0.77530499  0.75095432  0.69089041     1.04400
C1251       C  0.18031285  0.59556303  0.63431883     0.31400
C1252       C  0.15796010  0.54211368  0.68147819     0.31400
C1253       C  0.15435695  0.60829866  0.66055978    -0.04800
C1254       C  0.15841796  0.56334766  0.60931086    -0.05500
C1255       C  0.21110225  0.57502597  0.66636926    -0.05400
C1256       C  0.14365283  0.58194438  0.68548455    -0.04800
C1257       C  0.14723160  0.53564000  0.63361362    -0.05500
C1258       C  0.19917126  0.54691282  0.68943186    -0.05400
C1259       C  0.12351930  0.60121201  0.70866575    -0.30800
N1260       N  0.11976386  0.63735916  0.69629444     0.15700
C1261       C  0.13853262  0.64165366  0.66687151    -0.30800
H1262       H  0.14375359  0.66853211  0.65499824     0.17600
C1263       C  0.14004635  0.50412590  0.60891037    -0.29800
N1264       N  0.14480664  0.51220687  0.57046668     0.14400
C1265       C  0.15708401  0.54761892  0.57083029    -0.29800
C1266       C  0.22494856  0.51874352  0.69481163    -0.30100
N1267       N  0.25233090  0.52884104  0.67825160     0.14900
H1268       H  0.23227116  0.99145404  0.71366307     0.17500
C1269       C  0.24475812  0.56293888  0.66176212    -0.30100
H1270       H  0.26215951  0.57619011  0.64528345     0.17500
H1271       H  0.16789854  0.55962369  0.54643713     0.17500
H1272       H  0.11618794  0.59159891  0.73639387     0.17600
H1273       H  0.14575546  0.97871835  0.62183497     0.17600
Fe1274     Fe  0.29505143  0.68790857  0.71112187     1.65800
Fe1275     Fe  0.36297286  0.73682656  0.68832524     1.73200
Fe1276     Fe  0.27814248  0.74228689  0.62527671     1.54400
O1277       O  0.24512260  0.69507829  0.61384416    -0.80200
O1278       O  0.34975377  0.79262402  0.68338019    -0.78500
O1279       O  0.27241848  0.65331103  0.66085801    -0.82700
O1280       O  0.24790381  0.71719869  0.70443770    -0.77600
O1281       O  0.30810537  0.72125845  0.58671334    -0.79400
O1282       O  0.36669023  0.74212942  0.75341195    -0.82100
C1283       C  0.24119707  0.75101728  0.69457568     0.98600
C1284       C  0.24918650  0.66184854  0.62728371     1.06100
O1285       O  0.31247764  0.72200454  0.67478230    -1.11100
O1286       O  0.38059399  0.68193382  0.69362562    -0.73500
O1287       O  0.34046156  0.65529069  0.72292723    -0.77000
O1288       O  0.24981973  0.76616375  0.66389989    -0.77700
C1289       C  0.36956812  0.65456674  0.71117182     0.97600
O1290       O  0.31560567  0.71957559  0.76412637    -0.75700
O1291       O  0.36368902  0.73529518  0.62497174    -0.80900
C1292       C  0.32715418  0.80964870  0.65454870     1.00200
C1293       C  0.34136858  0.72788872  0.59002621     1.06100
O1294       O  0.30343044  0.79295446  0.62702004    -0.76500
C1295       C  0.34472956  0.73765827  0.77662560     1.04400
C1296       C  0.29906519  0.83602967  0.92332801     0.31400
C1297       C  0.32137736  0.78343201  0.87436959     0.31400
C1298       C  0.32582702  0.84929585  0.89897868    -0.04800
C1299       C  0.31964179  0.80267738  0.94721446    -0.05500
C1300       C  0.26910618  0.81692680  0.89028148    -0.05400
C1301       C  0.33639015  0.82336192  0.87274712    -0.04800
C1302       C  0.33093258  0.77541252  0.92229433    -0.05500
C1303       C  0.28025904  0.78997696  0.86545265    -0.05400
C1304       C  0.35241631  0.84407391  0.84680264    -0.30800
N1305       N  0.35420571  0.88034775  0.85902438     0.15700
C1306       C  0.33792739  0.88365847  0.89084259    -0.30800
H1307       H  0.33106816  0.90995654  0.90314026     0.17600
C1308       C  0.34307654  0.74540202  0.94834731    -0.29800
N1309       N  0.34090518  0.75438366  0.98789659     0.14400
C1310       C  0.32625985  0.78899537  0.98727791    -0.29800
C1311       C  0.25222464  0.76462254  0.85560706    -0.30100
N1312       N  0.22463263  0.77596235  0.87184050     0.14900
H1313       H  0.25300781  0.73795896  0.84046424     0.17500
C1314       C  0.23471795  0.80762378  0.89335905    -0.30100
H1315       H  0.22004753  0.82049532  0.91393722     0.17500
H1316       H  0.31327965  0.80864830  0.50558376     0.17500
H1317       H  0.35788246  0.83498173  0.81769320     0.17600
H1318       H  0.35052145  0.71826711  0.93873735     0.17600
Fe1319     Fe  0.18769727  0.94496105  0.84479355     1.65800
Fe1320     Fe  0.11912482  0.99310607  0.86516100     1.73200
Fe1321     Fe  0.20623794  0.49598311  0.93192108     1.54400
O1322       O  0.23451573  0.94413277  0.94396363    -0.80200
O1323       O  0.13420133  0.54824947  0.87393427    -0.78500
O1324       O  0.20290393  0.90869418  0.89396777    -0.82700
O1325       O  0.23673476  0.97278192  0.86005615    -0.77600
O1326       O  0.16567369  0.96770255  0.96590256    -0.79400
O1327       O  0.11843534  0.99870897  0.80092714    -0.82100
C1328       C  0.24984326  0.00167021  0.88100808     0.98600
C1329       C  0.23130144  0.91452019  0.92223092     1.06100
O1330       O  0.16929377  0.97752356  0.88131572    -1.11100
O1331       O  0.10101623  0.93834585  0.85686039    -0.73500
O1332       O  0.14082784  0.91430170  0.82477435    -0.77000
O1333       O  0.23876329  0.52146838  0.90024008    -0.77700
C1334       C  0.11165450  0.91231470  0.83641827     0.97600
O1335       O  0.17211992  0.97953097  0.79381326    -0.75700
O1336       O  0.12116278  0.49200003  0.93185012    -0.80900
C1337       C  0.15647373  0.56461946  0.90378032     1.00200
C1338       C  0.13419224  0.98090447  0.96231286     1.06100
O1339       O  0.17966756  0.54710755  0.93187418    -0.76500
C1340       C  0.14209692  0.99594853  0.77961023     1.04400
Fe1341     Fe  0.11137494  0.74572595  0.85279801     1.65800
Fe1342     Fe  0.16621870  0.70221174  0.80339139     1.73200
Fe1343     Fe  0.08980604  0.74033343  0.74589008     1.54400
O1344       O  0.04377696  0.72913487  0.76508904    -0.80200
O1345       O  0.18292407  0.74593777  0.77286879    -0.78500
O1346       O  0.05852376  0.72626619  0.83530423    -0.82700
O1347       O  0.09453060  0.79835292  0.83089403    -0.77600
O1348       O  0.09045338  0.68500109  0.72520902    -0.79400
O1349       O  0.19206791  0.72143637  0.86067578    -0.82100
C1350       C  0.09039985  0.81433493  0.79565000     0.98600
C1351       C  0.03567292  0.72381745  0.79975750     1.06100
O1352       O  0.12125526  0.72883385  0.80044625    -1.11100
O1353       O  0.14798632  0.65958539  0.83271279    -0.73500
O1354       O  0.12666797  0.69266586  0.87966566    -0.77000
O1355       O  0.08836353  0.79649796  0.76161256    -0.77700
C1356       C  0.13527120  0.66177473  0.86483648     0.97600
O1357       O  0.16274305  0.77078609  0.87078626    -0.75700
O1358       O  0.14938279  0.67592756  0.74788110    -0.80900
C1359       C  0.16623663  0.75761772  0.73651011     1.00200
C1360       C  0.11919741  0.66706186  0.72488894     1.06100
O1361       O  0.13264573  0.75311140  0.72115206    -0.76500
C1362       C  0.19208321  0.75530463  0.86891065     1.04400
Fe1363     Fe  0.37383830  0.98807649  0.70931484     1.65800
Fe1364     Fe  0.31236769  0.94694925  0.74973240     1.73200
Fe1365     Fe  0.38197705  0.48533461  0.79576700     1.54400
O1366       O  0.43451872  0.97245353  0.80122258    -0.80200
O1367       O  0.29268019  0.99028750  0.77710573    -0.78500
O1368       O  0.42369289  0.96326026  0.73165300    -0.82700
O1369       O  0.38340412  0.54099058  0.71281278    -0.77600
O1370       O  0.38323945  0.92968563  0.83486867    -0.79400
O1371       O  0.29183395  0.97039208  0.69239461    -0.82100
C1372       C  0.38670134  0.55730246  0.74784647     0.98600
C1373       C  0.44481674  0.96384733  0.76835543     1.06100
O1374       O  0.35833730  0.97238803  0.75857697    -1.11100
O1375       O  0.33284690  0.90433806  0.72246517    -0.73500
O1376       O  0.35649993  0.93749220  0.67840198    -0.77000
O1377       O  0.38467871  0.54046178  0.78090168    -0.77700
C1378       C  0.34745786  0.90660477  0.69198728     0.97600
O1379       O  0.31241942  0.51954724  0.67375057    -0.75700
O1380       O  0.32545394  0.91856083  0.80530461    -0.80900
C1381       C  0.30607765  0.00413641  0.81297953     1.00200
C1382       C  0.35477975  0.91064543  0.83140932     1.06100
O1383       O  0.33804300  0.50022089  0.81971337    -0.76500
C1384       C  0.29452070  0.00484263  0.68769384     1.04400
C1385       C  0.09244152  0.85549314  0.79491425    -0.15000
C1386       C  0.09148505  0.87689168  0.82842836    -0.30200
H1387       H  0.10140321  0.86770083  0.76910890     0.14000
H1388       H  0.08098720  0.86571549  0.85359795     0.14600
C1389       C  0.15761599  0.60566965  0.90416833    -0.15000
C1390       C  0.12935479  0.62631376  0.88396734    -0.30200
H1391       H  0.18373451  0.61877266  0.91588415     0.14000
H1392       H  0.10318360  0.61337072  0.87224190     0.14600
C1393       C  0.28227162  0.01721965  0.87251997    -0.15000
C1394       C  0.28087003  0.02360915  0.83230953    -0.30200
H1395       H  0.30763322  0.00951503  0.89420087     0.14000
H1396       H  0.25563707  0.53531546  0.80342866     0.14600
C1397       C  0.26333794  0.89326190  0.91842097    -0.15000
C1398       C  0.28189302  0.86678028  0.94436331    -0.30200
H1399       H  0.26605128  0.89349195  0.88631218     0.14000
H1400       H  0.27892616  0.86351445  0.97609199     0.14600
C1401       C  0.38902251  0.59805844  0.74992950    -0.15000
C1402       C  0.38941736  0.61911027  0.71644398    -0.30200
H1403       H  0.38255411  0.61111820  0.77705494     0.14000
H1404       H  0.39704218  0.60735406  0.68942210     0.14600
C1405       C  0.32558634  0.85044847  0.65461704    -0.15000
C1406       C  0.35393976  0.87140627  0.67265853    -0.30200
H1407       H  0.29902426  0.86331290  0.64469790     0.14000
H1408       H  0.38073810  0.85915139  0.68237142     0.14600
C1409       C  0.32978242  0.75326480  0.84460367    -0.15000
C1410       C  0.35184860  0.75698087  0.81836819    -0.30200
H1411       H  0.31227828  0.72917545  0.83987435     0.14000
H1412       H  0.37319536  0.77728885  0.82509786     0.14600
C1413       C  0.35399505  0.73221143  0.55153029    -0.15000
C1414       C  0.33052488  0.73423462  0.51382394    -0.30200
H1415       H  0.38103747  0.74304286  0.55496045     0.14000
H1416       H  0.30291156  0.72501557  0.51003536     0.14600
C1417       C  0.18667489  0.77259448  0.70826617    -0.15000
C1418       C  0.22241517  0.77221356  0.72017932    -0.30200
H1419       H  0.17341244  0.77216523  0.67492033     0.14000
H1420       H  0.23557648  0.77204123  0.75353003     0.14600
C1421       C  0.22500118  0.63211337  0.60475355    -0.15000
C1422       C  0.19188422  0.62883085  0.61132019    -0.30200
H1423       H  0.23739301  0.60806129  0.59431037     0.14000
H1424       H  0.17963113  0.65528899  0.61553757     0.14600
C1425       C  0.14935449  0.51130622  0.70967737    -0.15000
C1426       C  0.12847846  0.51504048  0.73705586    -0.30200
H1427       H  0.16659668  0.48688585  0.71338683     0.14000
H1428       H  0.11311336  0.03426778  0.73011906     0.14600
C1429       C  0.14662947  0.48566789  0.53848013    -0.15000
C1430       C  0.13491858  0.49084622  0.00621427    -0.30200
H1431       H  0.17148893  0.46979752  0.54234643     0.14000
H1432       H  0.10929038  0.50445193  0.00524397     0.14600
C1433       C  0.97138199  0.71518833  0.76248486    -0.15000
C1434       C  0.99741785  0.71712948  0.79879436    -0.30200
H1435       H  0.97866902  0.71348987  0.73266848     0.14000
H1436       H  0.99004776  0.71826533  0.82859311     0.14600
C1437       C  0.50947819  0.96512563  0.80660603    -0.15000
C1438       C  0.48351119  0.95739716  0.77163255    -0.30200
H1439       H  0.49428556  0.46517680  0.80761691     0.14000
H1440       H  0.49102703  0.95186026  0.74243142     0.14600
C1441       C  0.88712899  0.87241700  0.72518483    -0.15000
C1442       C  0.88478269  0.85304597  0.75927460    -0.30200
H1443       H  0.89393339  0.85867946  0.69870430     0.14000
H1444       H  0.87963369  0.86795890  0.78604421     0.14600
C1445       C  0.83888525  0.60442002  0.66132133    -0.15000
C1446       C  0.84703692  0.62022095  0.69936995    -0.30200
H1447       H  0.82493095  0.62018174  0.63390125     0.14000
H1448       H  0.85799607  0.60309566  0.72683222     0.14600
C1449       C  0.71922719  0.03600695  0.70883622    -0.15000
C1450       C  0.68481443  0.02648793  0.69457984    -0.30200
H1451       H  0.73194582  0.54426766  0.73701760     0.14000
H1452       H  0.67457032  0.01964889  0.66153360     0.14600
C1453       C  0.71977688  0.89502171  0.64465664    -0.15000
C1454       C  0.69920036  0.87445367  0.61299961    -0.30200
H1455       H  0.71705807  0.88932612  0.67618028     0.14000
H1456       H  0.70122013  0.87712444  0.58084426     0.14600
C1457       C  0.59628272  0.60653534  0.77633499    -0.15000
C1458       C  0.59684138  0.62570779  0.81165264    -0.30200
H1459       H  0.60349512  0.62035897  0.75027215     0.14000
H1460       H  0.58804283  0.61265241  0.83710423     0.14600
C1461       C  0.62821919  0.85733918  0.87667411    -0.15000
C1462       C  0.65503095  0.88186193  0.88892487    -0.30200
H1463       H  0.60336415  0.86680433  0.85511209     0.14000
H1464       H  0.68120296  0.87263337  0.90752082     0.14600
C1465       C  0.60894085  0.76603748  0.71486492    -0.15000
C1466       C  0.62921380  0.76047571  0.68715494    -0.30200
H1467       H  0.58773513  0.78674892  0.70928578     0.14000
H1468       H  0.64434339  0.73454267  0.69002564     0.14600
C1469       C  0.62278066  0.74002577  0.98613910    -0.15000
C1470       C  0.64716152  0.73865222  0.52518798    -0.30200
H1471       H  0.59916004  0.75687982  0.98634023     0.14000
H1472       H  0.67437124  0.72831115  0.52781156     0.14600
C1473       C  0.75607360  0.80684353  0.83986019    -0.15000
C1474       C  0.78876280  0.80269089  0.83285650    -0.30200
H1475       H  0.74924591  0.83488614  0.84790797     0.14000
H1476       H  0.80548858  0.82731912  0.83514557     0.14600
C1477       C  0.76153212  0.65460266  0.90416988    -0.15000
C1478       C  0.77235509  0.62662591  0.93238013    -0.30200
H1479       H  0.77115647  0.65342763  0.87579923     0.14000
H1480       H  0.76186546  0.62397818  0.95995594     0.14600
C1481       C  0.85943782  0.51766599  0.82350798    -0.15000
C1482       C  0.83719961  0.51274644  0.84939870    -0.30200
H1483       H  0.88529474  0.03743039  0.82838368     0.14000
H1484       H  0.82177550  0.48715934  0.84550009     0.14600
C1485       C  0.86603256  0.48654581  0.55808721    -0.15000
C1486       C  0.84162576  0.48557112  0.52079176    -0.30200
H1487       H  0.89129200  0.50104204  0.56040123     0.14000
H1488       H  0.80145724  0.97071826  0.51711953     0.14600
loop_ 
_geom_bond_atom_site_label_1 
_geom_bond_atom_site_label_2 
_geom_bond_distance 
_geom_bond_site_symmetry_2 
_ccdc_geom_bond_type 
C1            C3   1.530       .  S
C1            C5   1.538       .  S
C1            C4   1.536       .  S
C1          C362   1.539       .  S
C2            C6   1.549       .  S
C2            C8   1.544       .  S
C2            C7   1.554       .  S
C2          C366   1.539       .  S
C3           C11   1.367       .  A
C3            C6   1.388       .  A
C4           C15   1.370       .  A
C4            C7   1.412       .  A
C5           C19   1.392       .  A
C5            C8   1.402       .  A
C6            C9   1.390       .  A
C7           C13   1.380       .  A
C8           C16   1.390       .  A
C9           N10   1.361       .  A
C9           H22   1.080       .  S
N10          C11   1.346       .  A
N10         C132   1.421       .  S
C11          H12   1.083       .  S
C13          N14   1.359       .  A
C13         H767   1.082   1_545  S
N14          C15   1.359       .  A
N14         C742   1.432   1_545  S
C15         H393   1.083       .  S
C16          N17   1.355       .  A
C16         H762   1.082   1_545  S
N17          C19   1.346       .  A
N17         C856   1.441       .  S
H18         C760   1.082       .  S
C19          H20   1.083       .  S
H21         C387   1.083   1_554  S
H23         C757   1.082       .  S
Fe24         O40   2.028       .  S
Fe24         O30   2.132       .  S
Fe24         O37   2.098       .  S
Fe24         O29   2.046       .  S
Fe24         O35   1.933       .  S
Fe25         O28   2.033       .  S
Fe25         O32   2.121       .  S
Fe25         O36   2.058       .  S
Fe25         O41   2.121       .  S
Fe25         O35   1.950       .  S
Fe26         O44   2.111       .  S
Fe26         O31   2.032       .  S
Fe26         O38   2.014       .  S
Fe26         O27   2.116       .  S
Fe26         O35   1.945       .  S
O27          C34   1.273       .  A
O28          C42   1.267       .  A
O29          C34   1.262       .  A
O30          C33   1.282       .  A
O31          C43   1.262       .  A
O32          C45   1.278       .  A
C33          O38   1.261       .  A
C33         C357   1.475       .  S
C34         C361   1.472       .  S
O36          C39   1.272       .  A
O37          C39   1.279       .  A
C39         C342   1.474       .  S
O40          C45   1.265       .  A
O41          C43   1.277       .  A
C42          O44   1.280       .  A
C42         C345   1.471       .  S
C43         C353   1.484       .  S
C45         C349   1.484       .  S
C46          C48   1.529       .  S
C46          C50   1.534       .  S
C46          C49   1.538       .  S
C46         C338   1.534       .  S
C47          C51   1.547       .  S
C47          C53   1.542       .  S
C47          C52   1.550       .  S
C47         C350   1.527       .  S
C48          C56   1.367       .  A
C48          C51   1.387       .  A
C49          C60   1.372       .  A
C49          C52   1.420       .  A
C50          C64   1.386       .  A
C50          C53   1.391       .  A
C51          C54   1.391       .  A
C52          C58   1.382       .  A
C53          C61   1.387       .  A
C54          N55   1.358       .  A
C54          H67   1.079       .  S
N55          C56   1.352       .  A
N55         C110   1.421       .  S
C56          H57   1.083       .  S
C58          N59   1.354       .  A
C58          H68   1.082       .  S
N59          C60   1.355       .  A
N59         C354   1.430       .  S
C60          H66   1.083       .  S
C61          N62   1.357       .  A
C61          H63   1.082       .  S
N62          C64   1.349       .  A
N62         C134   1.438       .  S
C64          H65   1.083       .  S
Fe69         O85   2.024       .  S
Fe69         O75   2.059       .  S
Fe69         O82   2.047       .  S
Fe69         O74   2.041       .  S
Fe69         O80   1.928       .  S
Fe70         O77   2.137       .  S
Fe70         O81   2.083       .  S
Fe70        O817   2.061       .  S
Fe70        O830   2.111       .  S
Fe70         O80   1.944       .  S
Fe71         O89   2.086   1_565  S
Fe71         O83   2.037   1_565  S
Fe71        O820   2.038       .  S
Fe71        O816   2.112       .  S
Fe71        O824   1.957       .  S
O72        Fe815   2.121       .  S
O72          C79   1.273       .  A
O73        Fe814   2.035   1_545  S
O73          C87   1.268       .  A
O74          C79   1.261       .  A
O75          C78   1.271       .  A
O76        Fe815   2.046       .  S
O76          C88   1.270       .  A
O77          C90   1.282       .  A
C78         O827   1.263       .  A
C78         C333   1.447       .  S
C79         C337   1.474       .  S
O80        Fe815   1.957       .  S
O81          C84   1.273       .  A
O82          C84   1.268       .  A
O83         C822   1.265       .  A
C84         C325   1.473       .  S
O85          C90   1.263       .  A
O86        Fe814   2.118       .  S
O86         C832   1.283       .  A
C87          O89   1.268       .  A
C87         C329   1.474       .  S
C88         O830   1.279       .  A
C88        C1113   1.484       .  S
C90        C1109   1.491       .  S
Fe91        O104   2.114       .  S
Fe91         O96   2.088       .  S
Fe91        O851   2.100       .  S
Fe91        O841   2.075       .  S
Fe91        O102   1.951       .  S
Fe92         O95   2.050       .  S
Fe92         O99   2.031       .  S
Fe92        O103   2.034       .  S
Fe92        O108   2.026       .  S
Fe92        O102   1.940       .  S
Fe93        O111   2.068       .  S
Fe93        O105   2.079   1_565  S
Fe93        O842   2.094       .  S
Fe93        O838   2.072       .  S
Fe93        O846   1.941       .  S
O94        Fe837   2.046       .  S
O94         C101   1.270       .  A
O95         C109   1.276       .  A
O96         C101   1.277       .  A
O97        Fe835   2.057   1_545  S
O97         C100   1.269       .  A
O98        Fe837   2.079       .  S
O98         C110   1.268       .  A
O99         C112   1.252       .  A
C100        O105   1.272       .  A
C100        C341   1.477       .  S
C101        C321   1.478       .  S
O102       Fe837   1.949       .  S
O103        C106   1.271       .  A
O104        C106   1.281       .  A
C106        C346   1.467       .  S
O107       Fe835   2.109   1_545  S
O107        C856   1.266       .  A
O108        C110   1.259       .  A
C109        O855   1.269       .  A
C109        C334   1.462       .  S
O111        C853   1.270   1_565  A
C112        N761   1.435       .  S
C112        O851   1.269       .  A
Fe113       O129   2.093       .  S
Fe113       O119   2.078       .  S
Fe113       O126   2.109       .  S
Fe113       O118   2.078       .  S
Fe113       O124   1.942       .  S
Fe114       O117   2.041       .  S
Fe114       O121   2.048       .  S
Fe114       O125   2.022       .  S
Fe114       O130   2.040       .  S
Fe114       O124   1.950       .  S
Fe115       O133   2.094       .  S
Fe115       O120   2.070       .  S
Fe115       O127   2.053       .  S
Fe115       O116   2.061       .  S
Fe115       O124   1.928       .  S
O116        C123   1.271       .  A
O117        C131   1.271       .  A
O118        C123   1.275       .  A
O119        C122   1.273       .  A
O120        C132   1.262       .  A
O121        C134   1.258       .  A
C122        O127   1.269       .  A
C122        C326   1.469       .  S
C123        C317   1.477       .  S
O125        C128   1.269       .  A
O126        C128   1.281       .  A
C128        C330   1.455       .  S
O129        C134   1.268       .  A
O130        C132   1.262       .  A
C131        O133   1.279       .  A
C131        C358   1.459       .  S
C135        C137   1.539       .  S
C135        C139   1.557       .  S
C135        C138   1.540       .  S
C135        C306   1.543       .  S
C136        C140   1.546       .  S
C136        C142   1.544       .  S
C136        C141   1.542       .  S
C136        C309   1.537       .  S
C137        C145   1.378       .  A
C137        C140   1.385       .  A
C138        C149   1.372       .  A
C138        C141   1.409       .  A
C139        C153   1.404       .  A
C139        C142   1.413       .  A
C140        C143   1.391       .  A
C141        C147   1.377       .  A
C142        C150   1.390       .  A
C143        N144   1.359       .  A
C143        H156   1.077       .  S
N144        C145   1.353       .  A
N144        C244   1.423       .  S
C145        H146   1.082       .  S
C147        N148   1.356       .  A
C147        H901   1.082   1_545  S
N148        C149   1.360       .  A
N148        C313   1.431   1_545  S
C149        H155   1.083       .  S
C150        N151   1.348       .  A
C150        H896   1.081   1_545  S
N151        C153   1.343       .  A
N151       C1012   1.442       .  S
H152        C894   1.081       .  S
C153        H154   1.073       .  S
H157        C891   1.082       .  S
Fe158       O174   2.061       .  S
Fe158       O164   2.048       .  S
Fe158       O171   2.052       .  S
Fe158       O163   2.077       .  S
Fe158       O169   1.951       .  S
Fe159       O162   2.055       .  S
Fe159       O166   2.107       .  S
Fe159       O170   2.073       .  S
Fe159       O175   2.089       .  S
Fe159       O169   1.958       .  S
Fe160       O178   2.067       .  S
Fe160       O165   2.050       .  S
Fe160       O172   2.043       .  S
Fe160       O161   2.096       .  S
Fe160       O169   1.966       .  S
O161        C168   1.270       .  A
O162        C176   1.269       .  A
O163        C168   1.271       .  A
O164        C167   1.268       .  A
O165        C177   1.271       .  A
O166        C179   1.275       .  A
C167        O172   1.263       .  A
C167        C302   1.447       .  S
C168        C305   1.489       .  S
O170        C173   1.270       .  A
O171        C173   1.270       .  A
C173        C286   1.467       .  S
O174        C179   1.267       .  A
O175        C177   1.275       .  A
C176        O178   1.266       .  A
C176        C289   1.466       .  S
C177        C297   1.474       .  S
C179        C294   1.496       .  S
C180        C182   1.530       .  S
C180        C184   1.534       .  S
C180        C183   1.534       .  S
C180        C282   1.526       .  S
C181        C185   1.557       .  S
C181        C187   1.543       .  S
C181        C186   1.552       .  S
C181        C293   1.537       .  S
C182        C190   1.372       .  A
C182        C185   1.392       .  A
C183        C194   1.370       .  A
C183        C186   1.407       .  A
C184        C198   1.389       .  A
C184        C187   1.394       .  A
C185        C188   1.391       .  A
C186        C192   1.382       .  A
C187        C195   1.386       .  A
C188        N189   1.361       .  A
C188        H201   1.079       .  S
N189        C190   1.350       .  A
N189        C266   1.426       .  S
C190        H191   1.083       .  S
C192        N193   1.361       .  A
C192        H202   1.082       .  S
N193        C194   1.359       .  A
N193        C670   1.434       .  S
C194        H572   1.083       .  S
C195        N196   1.356       .  A
C195        H197   1.082       .  S
N196        C198   1.346       .  A
N196        C246   1.436       .  S
C198        H199   1.083       .  S
H200        C566   1.083   1_554  S
Fe203       O219   2.054       .  S
Fe203       O209   2.085       .  S
Fe203       O216   2.076       .  S
Fe203       O208   2.046       .  S
Fe203       O214   1.925       .  S
Fe204       O211   2.122       .  S
Fe204       O215   2.085       .  S
Fe204       O951   2.060       .  S
Fe204       O964   2.101       .  S
Fe204       O214   1.937       .  S
Fe205       O223   2.102   1_565  S
Fe205       O217   2.035   1_565  S
Fe205       O954   2.043       .  S
Fe205       O950   2.119       .  S
Fe205       O958   1.962       .  S
O206       Fe949   2.109       .  S
O206        C213   1.268       .  A
O207       Fe948   2.043   1_545  S
O207        C221   1.272       .  A
O208        C213   1.260       .  A
O209        C212   1.278       .  A
O210       Fe949   2.044       .  S
O210        C222   1.268       .  A
O211        C224   1.281       .  A
C212        O961   1.263       .  A
C212        C277   1.453       .  S
C213        C281   1.465       .  S
O214       Fe949   1.968       .  S
O215        C218   1.273       .  A
O216        C218   1.271       .  A
O217        C956   1.264       .  A
C218        C270   1.481       .  S
O219        C224   1.270       .  A
O220       Fe948   2.094       .  S
O220        C966   1.274       .  A
C221        O223   1.278       .  A
C221        C273   1.477       .  S
C222        O964   1.276       .  A
C222       C1058   1.476       .  S
C224       C1054   1.494       .  S
Fe225       O241   2.108       .  S
Fe225       O231   2.070       .  S
Fe225       O238   2.116       .  S
Fe225       O230   2.082       .  S
Fe225       O236   1.946       .  S
Fe226       O229   2.055       .  S
Fe226       O233   2.025       .  S
Fe226       O237   2.035       .  S
Fe226       O242   2.012       .  S
Fe226       O236   1.936       .  S
Fe227       O245   2.060       .  S
Fe227       O232   2.098       .  S
Fe227       O239   2.081       .  S
Fe227       O228   2.058       .  S
Fe227       O236   1.941       .  S
O228        C235   1.271       .  A
O229        C243   1.278       .  A
O230        C235   1.276       .  A
O231        C234   1.271       .  A
O232        C244   1.274       .  A
O233        C246   1.249       .  A
C234        O239   1.273       .  A
C234        C269   1.482       .  S
C235        C318   1.478   1_455  S
O237        C240   1.271       .  A
O238        C240   1.282       .  A
C240        C274   1.464       .  S
O241        C246   1.266       .  A
O242        C244   1.256       .  A
C243        O245   1.269       .  A
C243        C301   1.461       .  S
Fe247       O260   2.108       .  S
Fe247       O252   2.067       .  S
Fe247      O1007   2.108       .  S
Fe247       O997   2.058       .  S
Fe247       O258   1.943       .  S
Fe248       O251   2.031       .  S
Fe248       O255   2.033       .  S
Fe248       O259   2.024       .  S
Fe248       O264   2.048       .  S
Fe248       O258   1.941       .  S
Fe249       O267   2.093   1_565  S
Fe249       O261   2.052   1_565  S
Fe249       O998   2.076       .  S
Fe249       O994   2.074       .  S
Fe249      O1002   1.935       .  S
O250       Fe993   2.076       .  S
O250        C257   1.275       .  A
O251        C265   1.265       .  A
O252        C257   1.276       .  A
O253       Fe991   2.068   1_545  S
O253        C256   1.269       .  A
O254       Fe993   2.085       .  S
O254        C266   1.271       .  A
O255        C268   1.254       .  A
C256        O261   1.266       .  A
C256        C285   1.468       .  S
C257        C322   1.473       .  S
O258       Fe993   1.933       .  S
O259        C262   1.269       .  A
O260        C262   1.280       .  A
C262        C290   1.462       .  S
O263       Fe991   2.105   1_545  S
O263       C1012   1.266       .  A
O264        C266   1.263       .  A
C265       O1011   1.277       .  A
C265        C278   1.455       .  S
O267       C1009   1.278       .  A
C268        N895   1.442       .  S
C268       O1007   1.265       .  A
C269        C270   1.350       .  D
C269        H271   1.087       .  S
C270        H272   1.086       .  S
C273        C274   1.341       .  D
C273        H275   1.087       .  S
C274        H276   1.086       .  S
C277        C278   1.331       .  D
C277        H279   1.087       .  S
C278       H1024   1.090       .  S
H280       C1022   1.090       .  S
C281        C282   1.352       .  D
C281        H283   1.088       .  S
C282        H284   1.085       .  S
C285        C286   1.343       .  D
C285        H287   1.088       .  S
C286        H288   1.086       .  S
C289        C290   1.336       .  D
C289        H291   1.088       .  S
C290        H292   1.086       .  S
C293        C294   1.353       .  D
C293        H295   1.085       .  S
C294        H296   1.079       .  S
C297        C298   1.341       .  D
C297        H299   1.087       .  S
C298        N565   1.429   1_554  S
C298        H300   1.086       .  S
C301        C302   1.325       .  D
C301        H303   1.088       .  S
C302        H304   1.088       .  S
C305        C306   1.345       .  D
C305        H307   1.080       .  S
C306        H308   1.081       .  S
C309        C310   1.351       .  D
C309        H311   1.084   1_545  S
C310        C968   1.490   1_545  S
C310       H1056   1.075       .  S
H312       C1054   1.078       .  S
C313        C686   1.341       .  D
C313        H315   1.086       .  S
C314        C966   1.474       .  S
C314        C685   1.342       .  D
C314        H316   1.087   1_565  S
C317        C318   1.351       .  D
C317        H319   1.087       .  S
C318        H320   1.087       .  S
C321        C322   1.351       .  D
C321       H1067   1.086       .  S
C322        H324   1.087       .  S
H323       C1065   1.087       .  S
C325        C326   1.346       .  D
C325        H327   1.086       .  S
C326        H328   1.088       .  S
C329        C330   1.337       .  D
C329        H331   1.087       .  S
C330        H332   1.087       .  S
C333        C334   1.330       .  D
C333       H1079   1.088       .  S
C334        H336   1.088       .  S
H335       C1077   1.088       .  S
C337        C338   1.356       .  D
C337        H339   1.088       .  S
C338        H340   1.085       .  S
C341        C342   1.347       .  D
C341        H343   1.087       .  S
C342        H344   1.087       .  S
C345        C346   1.340       .  D
C345        H347   1.089       .  S
C346        H348   1.086       .  S
C349        C350   1.350       .  D
C349        H351   1.080       .  S
C350        H352   1.086       .  S
C353        C726   1.349       .  D
C353        H355   1.086       .  S
C354        C725   1.343   1_554  D
C354        H356   1.087       .  S
C357        C358   1.336       .  D
C357        H359   1.088       .  S
C358        H360   1.087       .  S
C361        C362   1.361       .  D
C361        H363   1.086       .  S
C362        H364   1.085       .  S
C365        C834   1.499   1_545  S
C365        C366   1.360       .  D
C365       H1111   1.078       .  S
C366        H368   1.085   1_545  S
H367       C1109   1.078       .  S
C369        C832   1.479       .  S
C369        C370   1.346       .  D
C369        H371   1.086       .  S
C370        N386   1.432   1_564  S
C370       H1116   1.086       .  S
H372       C1114   1.086       .  S
C373        C375   1.534       .  S
C373        C377   1.538       .  S
C373        C376   1.535       .  S
C373        C734   1.538       .  S
C374        C378   1.546       .  S
C374        C380   1.537       .  S
C374        C379   1.554       .  S
C374        C738   1.535       .  S
C375        C383   1.369       .  A
C375        C378   1.393       .  A
C376        C387   1.371       .  A
C376        C379   1.411       .  A
C377        C391   1.390       .  A
C377        C380   1.398       .  A
C378        C381   1.389       .  A
C379        C385   1.380       .  A
C380        C388   1.385       .  A
C381        N382   1.357       .  A
C381        H394   1.079       .  S
N382        C383   1.345       .  A
N382        C504   1.419       .  S
C383        H384   1.083       .  S
C385        N386   1.359       .  A
C385       H1139   1.082   1_545  S
N386        C387   1.359       .  A
C388        N389   1.353       .  A
C388       H1134   1.082   1_545  S
N389        C391   1.346       .  A
N389       C1228   1.436       .  S
H390       C1132   1.082       .  S
C391        H392   1.083       .  S
H395       C1129   1.082       .  S
Fe396       O412   2.042       .  S
Fe396       O402   2.125       .  S
Fe396       O409   2.099       .  S
Fe396       O401   2.043       .  S
Fe396       O407   1.935       .  S
Fe397       O400   2.044       .  S
Fe397       O404   2.115       .  S
Fe397       O408   2.054       .  S
Fe397       O413   2.100       .  S
Fe397       O407   1.944       .  S
Fe398       O416   2.097       .  S
Fe398       O403   2.042       .  S
Fe398       O410   2.017       .  S
Fe398       O399   2.111       .  S
Fe398       O407   1.957       .  S
O399        C406   1.271       .  A
O400        C414   1.271       .  A
O401        C406   1.261       .  A
O402        C405   1.282       .  A
O403        C415   1.267       .  A
O404        C417   1.276       .  A
C405        O410   1.263       .  A
C405        C729   1.472       .  S
C406        C733   1.470       .  S
O408        C411   1.270       .  A
O409        C411   1.280       .  A
C411        C714   1.473       .  S
O412        C417   1.264       .  A
O413        C415   1.275       .  A
C414        O416   1.274       .  A
C414        C717   1.478       .  S
C415        C725   1.476       .  S
C417        C721   1.489       .  S
C418        C420   1.533       .  S
C418        C422   1.536       .  S
C418        C421   1.539       .  S
C418        C710   1.533       .  S
C419        C423   1.554       .  S
C419        C425   1.545       .  S
C419        C424   1.551       .  S
C419        C722   1.533       .  S
C420        C428   1.372       .  A
C420        C423   1.388       .  A
C421        C432   1.373       .  A
C421        C424   1.409       .  A
C422        C436   1.392       .  A
C422        C425   1.397       .  A
C423        C426   1.394       .  A
C424        C430   1.380       .  A
C425        C433   1.391       .  A
C426        N427   1.360       .  A
C426        H439   1.077       .  S
N427        C428   1.353       .  A
N427        C482   1.427       .  S
C428        H429   1.083       .  S
C430        N431   1.359       .  A
C430        H440   1.082       .  S
N431        C432   1.360       .  A
N431        C726   1.434       .  S
C432        H438   1.083       .  S
C433        N434   1.354       .  A
C433        H435   1.082       .  S
N434        C436   1.349       .  A
N434        C506   1.442       .  S
C436        H437   1.083       .  S
Fe441       O457   2.043       .  S
Fe441       O447   2.073       .  S
Fe441       O454   2.057       .  S
Fe441       O446   2.052       .  S
Fe441       O452   1.923       .  S
Fe442      O1189   2.038       .  S
Fe442       O449   2.136       .  S
Fe442       O453   2.072       .  S
Fe442      O1202   2.113       .  S
Fe442       O452   1.932       .  S
Fe443       O461   2.092   1_565  S
Fe443      O1192   2.046       .  S
Fe443       O455   2.035   1_565  S
Fe443      O1188   2.129       .  S
Fe443      O1196   1.959       .  S
O444      Fe1187   2.117       .  S
O444        C451   1.272       .  A
O445      Fe1186   2.053   1_545  S
O445        C459   1.273       .  A
O446        C451   1.261       .  A
O447        C450   1.275       .  A
O448      Fe1187   2.042       .  S
O448        C460   1.270       .  A
O449        C462   1.283       .  A
C450       O1199   1.264       .  A
C450        C705   1.449       .  S
C451        C709   1.472       .  S
O452      Fe1187   1.959       .  S
O453        C456   1.270       .  A
O454        C456   1.270       .  A
O455       C1194   1.263       .  A
C456        C697   1.469       .  S
O457        C462   1.266       .  A
O458      Fe1186   2.107       .  S
O458       C1204   1.278       .  A
C459        O461   1.274       .  A
C459        C701   1.477       .  S
C460       O1202   1.281       .  A
C460       C1485   1.479       .  S
C462       C1481   1.500       .  S
Fe463      O1223   2.101       .  S
Fe463      O1213   2.060       .  S
Fe463       O476   2.111       .  S
Fe463       O468   2.077       .  S
Fe463       O474   1.945       .  S
Fe464       O467   2.044       .  S
Fe464       O471   2.040       .  S
Fe464       O475   2.034       .  S
Fe464       O480   2.032       .  S
Fe464       O474   1.933       .  S
Fe465       O483   2.068   1_565  S
Fe465      O1214   2.078       .  S
Fe465       O477   2.060   1_565  S
Fe465      O1210   2.059       .  S
Fe465      O1218   1.947       .  S
O466      Fe1209   2.074       .  S
O466        C473   1.274       .  A
O467        C481   1.275       .  A
O468        C473   1.275       .  A
O469      Fe1207   2.074   1_545  S
O469        C472   1.272       .  A
O470      Fe1209   2.094       .  S
O470        C482   1.272       .  A
O471        C484   1.255       .  A
C472        O477   1.267       .  A
C472        C713   1.476       .  S
C473        C693   1.481       .  S
O474      Fe1209   1.938       .  S
O475        C478   1.270       .  A
O476        C478   1.281       .  A
C478        C718   1.463       .  S
O479      Fe1207   2.098   1_545  S
O479       C1228   1.266       .  A
O480        C482   1.260       .  A
C481       O1227   1.273       .  A
C481        C706   1.463       .  S
O483       C1225   1.269       .  A
C484       N1133   1.441       .  S
C484       O1223   1.265       .  A
Fe485       O501   2.098       .  S
Fe485       O491   2.074       .  S
Fe485       O498   2.112       .  S
Fe485       O490   2.079       .  S
Fe485       O496   1.942       .  S
Fe486       O489   2.050       .  S
Fe486       O493   2.048       .  S
Fe486       O497   2.036       .  S
Fe486       O502   2.051       .  S
Fe486       O496   1.952       .  S
Fe487       O505   2.081       .  S
Fe487       O492   2.061       .  S
Fe487       O499   2.053       .  S
Fe487       O488   2.059       .  S
Fe487       O496   1.932       .  S
O488        C495   1.270       .  A
O489        C503   1.270       .  A
O490        C495   1.275       .  A
O491        C494   1.272       .  A
O492        C504   1.263       .  A
O493        C506   1.259       .  A
C494        O499   1.268       .  A
C494        C698   1.468       .  S
C495        C689   1.477       .  S
O497        C500   1.271       .  A
O498        C500   1.282       .  A
C500        C702   1.464       .  S
O501        C506   1.267       .  A
O502        C504   1.265       .  A
C503        O505   1.274       .  A
C503        C730   1.457       .  S
C507        C509   1.538       .  S
C507        C511   1.558       .  S
C507        C510   1.539       .  S
C507        C678   1.544       .  S
C508        C512   1.543       .  S
C508        C514   1.544       .  S
C508        C513   1.543       .  S
C508        C681   1.541       .  S
C509        C517   1.377       .  A
C509        C512   1.384       .  A
C510        C521   1.371       .  A
C510        C513   1.414       .  A
C511        C525   1.404       .  A
C511        C514   1.412       .  A
C512        C515   1.390       .  A
C513        C519   1.378       .  A
C514        C522   1.387       .  A
C515        N516   1.358       .  A
C515        H528   1.079       .  S
N516        C517   1.352       .  A
N516        C616   1.422       .  S
C517        H518   1.082       .  S
C519        N520   1.355       .  A
C519       H1273   1.082   1_545  S
N520        C521   1.357       .  A
N520        C685   1.428   1_545  S
C521        H527   1.083       .  S
C522        N523   1.348       .  A
C522       H1268   1.081   1_545  S
N523        C525   1.348       .  A
N523       C1384   1.444       .  S
H524       C1266   1.081       .  S
C525        H526   1.075       .  S
H529       C1263   1.082       .  S
Fe530       O546   2.039       .  S
Fe530       O536   2.051       .  S
Fe530       O543   2.051       .  S
Fe530       O535   2.057       .  S
Fe530       O541   1.937       .  S
Fe531       O534   2.025       .  S
Fe531       O538   2.127       .  S
Fe531       O542   2.068       .  S
Fe531       O547   2.112       .  S
Fe531       O541   1.935       .  S
Fe532       O550   2.101       .  S
Fe532       O537   2.044       .  S
Fe532       O544   2.056       .  S
Fe532       O533   2.133       .  S
Fe532       O541   1.948       .  S
O533        C540   1.283       .  A
O534        C548   1.261       .  A
O535        C540   1.271       .  A
O536        C539   1.263       .  A
O537        C549   1.272       .  A
O538        C551   1.284       .  A
C539        O544   1.261       .  A
C539        C674   1.452       .  S
C540        C677   1.488       .  S
O542        C545   1.267       .  A
O543        C545   1.265       .  A
C545        C658   1.467       .  S
O546        C551   1.270       .  A
O547        C549   1.282       .  A
C548        O550   1.274       .  A
C548        C661   1.467       .  S
C549        C669   1.480       .  S
C551        C666   1.491       .  S
C552        C554   1.526       .  S
C552        C556   1.535       .  S
C552        C555   1.536       .  S
C552        C654   1.525       .  S
C553        C557   1.549       .  S
C553        C559   1.544       .  S
C553        C558   1.547       .  S
C553        C665   1.530       .  S
C554        C562   1.370       .  A
C554        C557   1.386       .  A
C555        C566   1.371       .  A
C555        C558   1.419       .  A
C556        C570   1.388       .  A
C556        C559   1.394       .  A
C557        C560   1.389       .  A
C558        C564   1.383       .  A
C559        C567   1.387       .  A
C560        N561   1.361       .  A
C560        H573   1.081       .  S
N561        C562   1.351       .  A
N561        C638   1.425       .  S
C562        H563   1.083       .  S
C564        N565   1.354       .  A
C564        H574   1.082       .  S
N565        C566   1.353       .  A
C567        N568   1.358       .  A
C567        H569   1.082       .  S
N568        C570   1.346       .  A
N568        C618   1.438       .  S
C570        H571   1.083       .  S
Fe575       O591   2.043       .  S
Fe575       O581   2.081       .  S
Fe575       O588   2.066       .  S
Fe575       O580   2.038       .  S
Fe575       O586   1.924       .  S
Fe576      O1323   2.056       .  S
Fe576       O583   2.125       .  S
Fe576       O587   2.086       .  S
Fe576      O1336   2.104       .  S
Fe576       O586   1.937       .  S
Fe577       O595   2.092   1_565  S
Fe577      O1326   2.048       .  S
Fe577       O589   2.034   1_565  S
Fe577      O1322   2.118       .  S
Fe577      O1330   1.972       .  S
O578      Fe1321   2.116       .  S
O578        C585   1.270       .  A
O579      Fe1320   2.058   1_545  S
O579        C593   1.273       .  A
O580        C585   1.258       .  A
O581        C584   1.277       .  A
O582      Fe1321   2.044       .  S
O582        C594   1.268       .  A
O583        C596   1.282       .  A
C584       O1333   1.263       .  A
C584        C649   1.456       .  S
C585        C653   1.464       .  S
O586      Fe1321   1.967       .  S
O587        C590   1.272       .  A
O588        C590   1.268       .  A
O589       C1328   1.264       .  A
C590        C642   1.480       .  S
O591        C596   1.270       .  A
O592      Fe1320   2.096       .  S
O592       C1338   1.276       .  A
C593        O595   1.274       .  A
C593        C645   1.476       .  S
C594       O1336   1.277       .  A
C594       C1430   1.479   1_556  S
C596       C1426   1.490       .  S
Fe597       O613   2.111       .  S
Fe597       O603   2.066       .  S
Fe597       O610   2.119       .  S
Fe597       O602   2.080       .  S
Fe597       O608   1.950       .  S
Fe598       O601   2.058       .  S
Fe598       O605   2.022       .  S
Fe598       O609   2.032       .  S
Fe598       O614   2.012       .  S
Fe598       O608   1.945       .  S
Fe599       O617   2.067       .  S
Fe599       O604   2.097       .  S
Fe599       O611   2.080       .  S
Fe599       O600   2.060       .  S
Fe599       O608   1.937       .  S
O600        C607   1.272       .  A
O601        C615   1.278       .  A
O602        C607   1.276       .  A
O603        C606   1.270       .  A
O604        C616   1.273       .  A
O605        C618   1.247       .  A
C606        O611   1.273       .  A
C606        C641   1.479       .  S
C607        C690   1.477       .  S
O609        C612   1.271       .  A
O610        C612   1.284       .  A
C612        C646   1.466       .  S
O613        C618   1.265       .  A
O614        C616   1.255       .  A
C615        O617   1.272       .  A
C615        C673   1.465       .  S
Fe619      O1379   2.101       .  S
Fe619      O1369   2.070       .  S
Fe619       O632   2.127       .  S
Fe619       O624   2.081       .  S
Fe619       O630   1.950       .  S
Fe620       O623   2.027       .  S
Fe620       O627   2.030       .  S
Fe620       O631   2.015       .  S
Fe620       O636   2.046       .  S
Fe620       O630   1.942       .  S
Fe621       O639   2.088       .  S
Fe621      O1370   2.081       .  S
Fe621       O633   2.063   1_565  S
Fe621      O1366   2.082       .  S
Fe621      O1374   1.937       .  S
O622      Fe1365   2.074       .  S
O622        C629   1.277       .  A
O623        C637   1.265       .  A
O624        C629   1.279       .  A
O625      Fe1363   2.055   1_545  S
O625        C628   1.267       .  A
O626      Fe1365   2.080       .  S
O626        C638   1.269       .  A
O627        C640   1.253       .  A
C628        O633   1.269       .  A
C628        C657   1.467       .  S
C629        C694   1.482       .  S
O630      Fe1365   1.936       .  S
O631        C634   1.269       .  A
O632        C634   1.283       .  A
C634        C662   1.467       .  S
O635      Fe1363   2.106   1_545  S
O635       C1384   1.265       .  A
O636        C638   1.262       .  A
C637       O1383   1.278       .  A
C637        C650   1.457       .  S
O639       C1381   1.277   1_565  A
C640       N1267   1.440       .  S
C640       O1379   1.265       .  A
C641        C642   1.351       .  D
C641        H643   1.087       .  S
C642        H644   1.086       .  S
C645        C646   1.339       .  D
C645        H647   1.087       .  S
C646        H648   1.086       .  S
C649        C650   1.330       .  D
C649        H651   1.087       .  S
C650       H1396   1.090       .  S
H652       C1394   1.090       .  S
C653        C654   1.349       .  D
C653        H655   1.088       .  S
C654        H656   1.085       .  S
C657        C658   1.347       .  D
C657        H659   1.088       .  S
C658        H660   1.086       .  S
C661        C662   1.339       .  D
C661        H663   1.090       .  S
C662        H664   1.086       .  S
C665        C666   1.353       .  D
C665        H667   1.085       .  S
C666        H668   1.082       .  S
C669        C670   1.346       .  D
C669        H671   1.086       .  S
C670        H672   1.087       .  S
C673        C674   1.329       .  D
C673        H675   1.088       .  S
C674        H676   1.087       .  S
C677        C678   1.344       .  D
C677        H679   1.080       .  S
C678        H680   1.082       .  S
C681        C682   1.352       .  D
C681        H683   1.083   1_545  S
C682       C1340   1.493   1_545  S
C682       H1428   1.078       .  S
H684       C1426   1.077       .  S
C685        H687   1.087       .  S
C686       C1338   1.474   1_554  S
C686        H688   1.087   1_564  S
C689        C690   1.351   1_655  D
C689        H691   1.087       .  S
C690        H692   1.087   1_455  S
C693        C694   1.351       .  D
C693       H1439   1.087       .  S
C694        H696   1.087       .  S
H695       C1437   1.086       .  S
C697        C698   1.343       .  D
C697        H699   1.086       .  S
C698        H700   1.088       .  S
C701        C702   1.338       .  D
C701        H703   1.087       .  S
C702        H704   1.086       .  S
C705        C706   1.331       .  D
C705       H1451   1.088       .  S
C706        H708   1.088       .  S
H707       C1449   1.088       .  S
C709        C710   1.357       .  D
C709        H711   1.087       .  S
C710        H712   1.085       .  S
C713        C714   1.341       .  D
C713        H715   1.087       .  S
C714        H716   1.087       .  S
C717        C718   1.339       .  D
C717        H719   1.087       .  S
C718        H720   1.086       .  S
C721        C722   1.351       .  D
C721        H723   1.075       .  S
C722        H724   1.085       .  S
C725        H727   1.087       .  S
C726        H728   1.086       .  S
C729        C730   1.333       .  D
C729        H731   1.088       .  S
C730        H732   1.087       .  S
C733        C734   1.360       .  D
C733        H735   1.087       .  S
C734        H736   1.085       .  S
C737       C1206   1.494   1_545  S
C737        C738   1.357       .  D
C737       H1483   1.079       .  S
C738        H740   1.086   1_545  S
H739       C1481   1.079       .  S
C741       C1204   1.480       .  S
C741        C742   1.344       .  D
C741        H743   1.087       .  S
C742       H1488   1.086       .  S
H744       C1486   1.086       .  S
C745        C747   1.528       .  S
C745        C749   1.530       .  S
C745        C748   1.538       .  S
C745       C1106   1.529       .  S
C746        C750   1.547       .  S
C746        C752   1.544       .  S
C746        C751   1.550       .  S
C746       C1110   1.533       .  S
C747        C755   1.370       .  A
C747        C750   1.392       .  A
C748        C759   1.372       .  A
C748        C751   1.415       .  A
C749        C763   1.384       .  A
C749        C752   1.390       .  A
C750        C753   1.386       .  A
C751        C757   1.382       .  A
C752        C760   1.386       .  A
C753        N754   1.355       .  A
C753        H766   1.078       .  S
N754        C755   1.349       .  A
N754        C876   1.419       .  S
C755        H756   1.083       .  S
C757        N758   1.357       .  A
N758        C759   1.357       .  A
N758       C1486   1.432       .  S
C759       H1137   1.083       .  S
C760        N761   1.359       .  A
N761        C763   1.345       .  A
C763        H764   1.083       .  S
H765       C1131   1.083   1_554  S
Fe768       O784   2.047       .  S
Fe768       O774   2.085       .  S
Fe768       O781   2.070       .  S
Fe768       O773   2.043       .  S
Fe768       O779   1.919       .  S
Fe769       O772   2.058       .  S
Fe769       O776   2.122       .  S
Fe769       O780   2.077       .  S
Fe769       O785   2.097       .  S
Fe769       O779   1.936       .  S
Fe770       O788   2.091       .  S
Fe770       O775   2.038       .  S
Fe770       O782   2.026       .  S
Fe770       O771   2.112       .  S
Fe770       O779   1.963       .  S
O771        C778   1.268       .  A
O772        C786   1.274       .  A
O773        C778   1.259       .  A
O774        C777   1.279       .  A
O775        C787   1.267       .  A
O776        C789   1.281       .  A
C777        O782   1.263       .  A
C777       C1101   1.451       .  S
C778       C1105   1.466       .  S
O780        C783   1.271       .  A
O781        C783   1.271       .  A
C783       C1086   1.475       .  S
O784        C789   1.269       .  A
O785        C787   1.275       .  A
C786        O788   1.274       .  A
C786       C1089   1.475       .  S
C787       C1097   1.472       .  S
C789       C1093   1.491       .  S
C790        C792   1.526       .  S
C790        C794   1.536       .  S
C790        C793   1.539       .  S
C790       C1082   1.531       .  S
C791        C795   1.556       .  S
C791        C797   1.547       .  S
C791        C796   1.550       .  S
C791       C1094   1.535       .  S
C792        C800   1.370       .  A
C792        C795   1.384       .  A
C793        C804   1.371       .  A
C793        C796   1.411       .  A
C794        C808   1.391       .  A
C794        C797   1.399       .  A
C795        C798   1.394       .  A
C796        C802   1.380       .  A
C797        C805   1.394       .  A
C798        N799   1.362       .  A
C798        H811   1.079       .  S
N799        C800   1.352       .  A
N799        C854   1.424       .  S
C800        H801   1.083       .  S
C802        N803   1.360       .  A
C802        H812   1.082       .  S
N803        C804   1.360       .  A
N803       C1098   1.434       .  S
C804        H810   1.083       .  S
C805        N806   1.356       .  A
C805        H807   1.082       .  S
N806        C808   1.346       .  A
N806        C878   1.443       .  S
C808        H809   1.083       .  S
Fe813       O829   2.036       .  S
Fe813       O819   2.068       .  S
Fe813       O826   2.052       .  S
Fe813       O818   2.052       .  S
Fe813       O824   1.921       .  S
Fe814       O821   2.137       .  S
Fe814       O825   2.069       .  S
Fe814       O824   1.933       .  S
Fe815       O833   2.083       .  S
Fe815       O827   2.040       .  S
O816        C823   1.269       .  A
O817        C831   1.273       .  A
O818        C823   1.261       .  A
O819        C822   1.275   1_565  A
O820        C832   1.271       .  A
O821        C834   1.284       .  A
C822       C1077   1.446       .  S
C823       C1081   1.470       .  S
O825        C828   1.269       .  A
O826        C828   1.270       .  A
C828       C1069   1.468       .  S
O829        C834   1.265       .  A
C831        O833   1.272       .  A
C831       C1073   1.471       .  S
Fe835       O848   2.110       .  S
Fe835       O840   2.080       .  S
Fe835       O846   1.942       .  S
Fe836       O839   2.049       .  S
Fe836       O843   2.031       .  S
Fe836       O847   2.036       .  S
Fe836       O852   2.024       .  S
Fe836       O846   1.941       .  S
Fe837       O855   2.065       .  S
Fe837       O849   2.063       .  S
O838        C845   1.273       .  A
O839        C853   1.276   1_565  A
O840        C845   1.276       .  A
O841        C844   1.271       .  A
O842        C854   1.274       .  A
O843        C856   1.252   1_565  A
C844        O849   1.268       .  A
C844       C1085   1.475       .  S
C845       C1065   1.482       .  S
O847        C850   1.271       .  A
O848        C850   1.282       .  A
C850       C1090   1.467       .  S
O852        C854   1.259       .  A
C853       C1078   1.461       .  S
Fe857       O873   2.106       .  S
Fe857       O863   2.073       .  S
Fe857       O870   2.120       .  S
Fe857       O862   2.068       .  S
Fe857       O868   1.945       .  S
Fe858       O861   2.025       .  S
Fe858       O865   2.035       .  S
Fe858       O869   2.022       .  S
Fe858       O874   2.046       .  S
Fe858       O868   1.945       .  S
Fe859       O877   2.088       .  S
Fe859       O864   2.063       .  S
Fe859       O871   2.044       .  S
Fe859       O860   2.068       .  S
Fe859       O868   1.936       .  S
O860        C867   1.275       .  A
O861        C875   1.266       .  A
O862        C867   1.275       .  A
O863        C866   1.270       .  A
O864        C876   1.264       .  A
O865        C878   1.254       .  A
C866        O871   1.265       .  A
C866       C1070   1.466       .  S
C867       C1061   1.472       .  S
O869        C872   1.269       .  A
O870        C872   1.284       .  A
C872       C1074   1.464       .  S
O873        C878   1.266       .  A
O874        C876   1.261       .  A
C875        O877   1.279       .  A
C875       C1102   1.452       .  S
C879        C881   1.537       .  S
C879        C883   1.557       .  S
C879        C882   1.540       .  S
C879       C1050   1.543       .  S
C880        C884   1.543       .  S
C880        C886   1.544       .  S
C880        C885   1.545       .  S
C880       C1053   1.541       .  S
C881        C889   1.376       .  A
C881        C884   1.386       .  A
C882        C893   1.373       .  A
C882        C885   1.412       .  A
C883        C897   1.403       .  A
C883        C886   1.411       .  A
C884        C887   1.389       .  A
C885        C891   1.381       .  A
C886        C894   1.386       .  A
C887        N888   1.357       .  A
C887        H900   1.079       .  S
N888        C889   1.351       .  A
N888        C988   1.420       .  S
C889        H890   1.082       .  S
C891        N892   1.357       .  A
N892        C893   1.357       .  A
N892       C1057   1.432       .  S
C893        H899   1.083       .  S
C894        N895   1.349       .  A
N895        C897   1.347       .  A
C897        H898   1.075       .  S
Fe902       O918   2.039       .  S
Fe902       O908   2.049       .  S
Fe902       O915   2.050       .  S
Fe902       O907   2.059       .  S
Fe902       O913   1.940       .  S
Fe903       O906   2.033       .  S
Fe903       O910   2.130       .  S
Fe903       O914   2.075       .  S
Fe903       O919   2.118       .  S
Fe903       O913   1.935       .  S
Fe904       O922   2.097       .  S
Fe904       O909   2.045       .  S
Fe904       O916   2.055       .  S
Fe904       O905   2.128       .  S
Fe904       O913   1.949       .  S
O905        C912   1.281       .  A
O906        C920   1.262       .  A
O907        C912   1.272       .  A
O908        C911   1.263       .  A
O909        C921   1.272       .  A
O910        C923   1.285       .  A
C911        O916   1.260       .  A
C911       C1046   1.451       .  S
C912       C1049   1.487       .  S
O914        C917   1.268       .  A
O915        C917   1.265       .  A
C917       C1030   1.470       .  S
O918        C923   1.269       .  A
O919        C921   1.284       .  A
C920        O922   1.273       .  A
C920       C1033   1.470       .  S
C921       C1041   1.483       .  S
C923       C1038   1.493       .  S
C924        C926   1.524       .  S
C924        C928   1.533       .  S
C924        C927   1.537       .  S
C924       C1026   1.527       .  S
C925        C929   1.548       .  S
C925        C931   1.546       .  S
C925        C930   1.547       .  S
C925       C1037   1.532       .  S
C926        C934   1.369       .  A
C926        C929   1.386       .  A
C927        C938   1.372       .  A
C927        C930   1.423       .  A
C928        C942   1.387       .  A
C928        C931   1.396       .  A
C929        C932   1.389       .  A
C930        C936   1.383       .  A
C931        C939   1.389       .  A
C932        N933   1.360       .  A
C932        H945   1.081       .  S
N933        C934   1.350       .  A
N933       C1010   1.423       .  S
C934        H935   1.083       .  S
C936        N937   1.352       .  A
C936        H946   1.082       .  S
N937        C938   1.352       .  A
N937       C1414   1.428       .  S
C938       H1316   1.083       .  S
C939        N940   1.358       .  A
C939        H941   1.082       .  S
N940        C942   1.345       .  A
N940        C990   1.437       .  S
C942        H943   1.083       .  S
H944       C1310   1.083   1_554  S
Fe947       O963   2.045       .  S
Fe947       O953   2.083       .  S
Fe947       O960   2.069       .  S
Fe947       O952   2.038       .  S
Fe947       O958   1.918       .  S
Fe948       O955   2.123       .  S
Fe948       O959   2.072       .  S
Fe948       O958   1.935       .  S
Fe949       O967   2.086       .  S
Fe949       O961   2.031       .  S
O950        C957   1.271       .  A
O951        C965   1.274       .  A
O952        C957   1.258       .  A
O953        C956   1.277   1_565  A
O954        C966   1.267       .  A
O955        C968   1.281       .  A
C956       C1021   1.456       .  S
C957       C1025   1.465       .  S
O959        C962   1.269       .  A
O960        C962   1.269       .  A
C962       C1014   1.475       .  S
O963        C968   1.270       .  A
C965        O967   1.273       .  A
C965       C1017   1.473       .  S
Fe969       O985   2.109       .  S
Fe969       O975   2.070       .  S
Fe969       O982   2.118       .  S
Fe969       O974   2.076       .  S
Fe969       O980   1.948       .  S
Fe970       O973   2.055       .  S
Fe970       O977   2.022       .  S
Fe970       O981   2.031       .  S
Fe970       O986   2.020       .  S
Fe970       O980   1.942       .  S
Fe971       O989   2.069       .  S
Fe971       O976   2.088       .  S
Fe971       O983   2.065       .  S
Fe971       O972   2.054       .  S
Fe971       O980   1.931       .  S
O972        C979   1.271       .  A
O973        C987   1.278       .  A
O974        C979   1.274       .  A
O975        C978   1.271       .  A
O976        C988   1.270       .  A
O977        C990   1.247       .  A
C978        O983   1.270       .  A
C978       C1013   1.474       .  S
C979       C1062   1.475       .  S
O981        C984   1.272       .  A
O982        C984   1.284       .  A
C984       C1018   1.466       .  S
O985        C990   1.264       .  A
O986        C988   1.257       .  A
C987        O989   1.273       .  A
C987       C1045   1.464       .  S
Fe991      O1004   2.126       .  S
Fe991       O996   2.085       .  S
Fe991      O1002   1.950       .  S
Fe992       O995   2.028       .  S
Fe992       O999   2.033       .  S
Fe992      O1003   2.019       .  S
Fe992      O1008   2.046       .  S
Fe992      O1002   1.941       .  S
Fe993      O1011   2.088       .  S
Fe993      O1005   2.067       .  S
O994       C1001   1.276       .  A
O995       C1009   1.265   1_565  A
O996       C1001   1.280       .  A
O997       C1000   1.267       .  A
O998       C1010   1.268       .  A
O999       C1012   1.255   1_565  A
C1000      O1005   1.270       .  A
C1000      C1029   1.470       .  S
C1001      C1066   1.484       .  S
O1003      C1006   1.268       .  A
O1004      C1006   1.282       .  A
C1006      C1034   1.468       .  S
O1008      C1010   1.263       .  A
C1009      C1022   1.458       .  S
C1013      C1014   1.345       .  D
C1013      H1015   1.087       .  S
C1014      H1016   1.086       .  S
C1017      C1018   1.337       .  D
C1017      H1019   1.087       .  S
C1018      H1020   1.086       .  S
C1021      C1022   1.330       .  D
C1021      H1023   1.087       .  S
C1025      C1026   1.350       .  D
C1025      H1027   1.088       .  S
C1026      H1028   1.085       .  S
C1029      C1030   1.348       .  D
C1029      H1031   1.088       .  S
C1030      H1032   1.086       .  S
C1033      C1034   1.340       .  D
C1033      H1035   1.090       .  S
C1034      H1036   1.086       .  S
C1037      C1038   1.355       .  D
C1037      H1039   1.085       .  S
C1038      H1040   1.082       .  S
C1041      C1042   1.348       .  D
C1041      H1043   1.086       .  S
C1042      N1309   1.437   1_554  S
C1042      H1044   1.087       .  S
C1045      C1046   1.329       .  D
C1045      H1047   1.088       .  S
C1046      H1048   1.087       .  S
C1049      C1050   1.343       .  D
C1049      H1051   1.079       .  S
C1050      H1052   1.082       .  S
C1053      C1054   1.353       .  D
C1053      H1055   1.083       .  S
C1057      C1430   1.345       .  D
C1057      H1059   1.086       .  S
C1058      C1429   1.343       .  D
C1058      H1060   1.087       .  S
C1061      C1062   1.348   1_655  D
C1061      H1063   1.087       .  S
C1062      H1064   1.087       .  S
C1065      C1066   1.353       .  D
C1066      H1068   1.086       .  S
C1069      C1070   1.341       .  D
C1069      H1071   1.086       .  S
C1070      H1072   1.088       .  S
C1073      C1074   1.338       .  D
C1073      H1075   1.088       .  S
C1074      H1076   1.086       .  S
C1077      C1078   1.329       .  D
C1078      H1080   1.088       .  S
C1081      C1082   1.357       .  D
C1081      H1083   1.087       .  S
C1082      H1084   1.085       .  S
C1085      C1086   1.344       .  D
C1085      H1087   1.087       .  S
C1086      H1088   1.086       .  S
C1089      C1090   1.338       .  D
C1089      H1091   1.087       .  S
C1090      H1092   1.086       .  S
C1093      C1094   1.352       .  D
C1093      H1095   1.078       .  S
C1094      H1096   1.084       .  S
C1097      C1470   1.341       .  D
C1097      H1099   1.087       .  S
C1098      C1469   1.346   1_554  D
C1098      H1100   1.086       .  S
C1101      C1102   1.330       .  D
C1101      H1103   1.087       .  S
C1102      H1104   1.090       .  S
C1105      C1106   1.353       .  D
C1105      H1107   1.088       .  S
C1106      H1108   1.085       .  S
C1109      C1110   1.357       .  D
C1110      H1112   1.086       .  S
C1113      C1114   1.347       .  D
C1113      H1115   1.087       .  S
C1114      N1130   1.435   1_554  S
C1117      C1119   1.533       .  S
C1117      C1121   1.540       .  S
C1117      C1120   1.534       .  S
C1117      C1478   1.542       .  S
C1118      C1122   1.553       .  S
C1118      C1124   1.540       .  S
C1118      C1123   1.561       .  S
C1118      C1482   1.541       .  S
C1119      C1127   1.368       .  A
C1119      C1122   1.391       .  A
C1120      C1131   1.370       .  A
C1120      C1123   1.412       .  A
C1121      C1135   1.393       .  A
C1121      C1124   1.401       .  A
C1122      C1125   1.394       .  A
C1123      C1129   1.384       .  A
C1124      C1132   1.389       .  A
C1125      N1126   1.362       .  A
C1125      H1138   1.080       .  S
N1126      C1127   1.345       .  A
N1126      C1248   1.425       .  S
C1127      H1128   1.083       .  S
C1129      N1130   1.362       .  A
N1130      C1131   1.358       .  A
C1132      N1133   1.353       .  A
N1133      C1135   1.348       .  A
C1135      H1136   1.083       .  S
Fe1140     O1156   2.023       .  S
Fe1140     O1146   2.128       .  S
Fe1140     O1153   2.099       .  S
Fe1140     O1145   2.038       .  S
Fe1140     O1151   1.934       .  S
Fe1141     O1144   2.029       .  S
Fe1141     O1148   2.123       .  S
Fe1141     O1152   2.053       .  S
Fe1141     O1157   2.112       .  S
Fe1141     O1151   1.950       .  S
Fe1142     O1160   2.120       .  S
Fe1142     O1147   2.037       .  S
Fe1142     O1154   2.014       .  S
Fe1142     O1143   2.126       .  S
Fe1142     O1151   1.946       .  S
O1143      C1150   1.277       .  A
O1144      C1158   1.267       .  A
O1145      C1150   1.262       .  A
O1146      C1149   1.281       .  A
O1147      C1159   1.262       .  A
O1148      C1161   1.278       .  A
C1149      O1154   1.259       .  A
C1149      C1473   1.475       .  S
C1150      C1477   1.474       .  S
O1152      C1155   1.270       .  A
O1153      C1155   1.279       .  A
C1155      C1458   1.472       .  S
O1156      C1161   1.263       .  A
O1157      C1159   1.275       .  A
C1158      O1160   1.283       .  A
C1158      C1461   1.475       .  S
C1159      C1469   1.481       .  S
C1161      C1465   1.483       .  S
C1162      C1164   1.530       .  S
C1162      C1166   1.533       .  S
C1162      C1165   1.542       .  S
C1162      C1454   1.537       .  S
C1163      C1167   1.544       .  S
C1163      C1169   1.544       .  S
C1163      C1168   1.546       .  S
C1163      C1466   1.527       .  S
C1164      C1172   1.367       .  A
C1164      C1167   1.387       .  A
C1165      C1176   1.374       .  A
C1165      C1168   1.425       .  A
C1166      C1180   1.386       .  A
C1166      C1169   1.388       .  A
C1167      C1170   1.389       .  A
C1168      C1174   1.378       .  A
C1169      C1177   1.388       .  A
C1170      N1171   1.356       .  A
C1170      H1183   1.078       .  S
N1171      C1172   1.353       .  A
N1171      C1226   1.421       .  S
C1172      H1173   1.083       .  S
C1174      N1175   1.351       .  A
C1174      H1184   1.082       .  S
N1175      C1176   1.355       .  A
N1175      C1470   1.426       .  S
C1176      H1182   1.083       .  S
C1177      N1178   1.359       .  A
C1177      H1179   1.082       .  S
N1178      C1180   1.351       .  A
N1178      C1250   1.441       .  S
C1180      H1181   1.083       .  S
Fe1185     O1201   2.032       .  S
Fe1185     O1191   2.066       .  S
Fe1185     O1198   2.052       .  S
Fe1185     O1190   2.043       .  S
Fe1185     O1196   1.923       .  S
Fe1186     O1193   2.133       .  S
Fe1186     O1197   2.081       .  S
Fe1186     O1196   1.939       .  S
Fe1187     O1205   2.092       .  S
Fe1187     O1199   2.038       .  S
O1188      C1195   1.274       .  A
O1189      C1203   1.270       .  A
O1190      C1195   1.261       .  A
O1191      C1194   1.273   1_565  A
O1192      C1204   1.270       .  A
O1193      C1206   1.282       .  A
C1194      C1449   1.447       .  S
C1195      C1453   1.477       .  S
O1197      C1200   1.273       .  A
O1198      C1200   1.269       .  A
C1200      C1441   1.473       .  S
O1201      C1206   1.264       .  A
C1203      O1205   1.270       .  A
C1203      C1445   1.475       .  S
Fe1207     O1220   2.122       .  S
Fe1207     O1212   2.083       .  S
Fe1207     O1218   1.947       .  S
Fe1208     O1211   2.046       .  S
Fe1208     O1215   2.033       .  S
Fe1208     O1219   2.035       .  S
Fe1208     O1224   2.030       .  S
Fe1208     O1218   1.934       .  S
Fe1209     O1227   2.077       .  S
Fe1209     O1221   2.073       .  S
O1210      C1217   1.272       .  A
O1211      C1225   1.274   1_565  A
O1212      C1217   1.275       .  A
O1213      C1216   1.270       .  A
O1214      C1226   1.270       .  A
O1215      C1228   1.253   1_565  A
C1216      O1221   1.271       .  A
C1216      C1457   1.476       .  S
C1217      C1437   1.480       .  S
O1219      C1222   1.272       .  A
O1220      C1222   1.284       .  A
C1222      C1462   1.471       .  S
O1224      C1226   1.260       .  A
C1225      C1450   1.461       .  S
Fe1229     O1245   2.102       .  S
Fe1229     O1235   2.083       .  S
Fe1229     O1242   2.119       .  S
Fe1229     O1234   2.086       .  S
Fe1229     O1240   1.941       .  S
Fe1230     O1233   2.035       .  S
Fe1230     O1237   2.047       .  S
Fe1230     O1241   2.015       .  S
Fe1230     O1246   2.046       .  S
Fe1230     O1240   1.950       .  S
Fe1231     O1249   2.092       .  S
Fe1231     O1236   2.077       .  S
Fe1231     O1243   2.055       .  S
Fe1231     O1232   2.051       .  S
Fe1231     O1240   1.927       .  S
O1232      C1239   1.269       .  A
O1233      C1247   1.270       .  A
O1234      C1239   1.276       .  A
O1235      C1238   1.275       .  A
O1236      C1248   1.263       .  A
O1237      C1250   1.257       .  A
C1238      O1243   1.270       .  A
C1238      C1442   1.470       .  S
C1239      C1433   1.479       .  S
O1241      C1244   1.269       .  A
O1242      C1244   1.284       .  A
C1244      C1446   1.458       .  S
O1245      C1250   1.269       .  A
O1246      C1248   1.262       .  A
C1247      O1249   1.279       .  A
C1247      C1474   1.457       .  S
C1251      C1253   1.537       .  S
C1251      C1255   1.556       .  S
C1251      C1254   1.543       .  S
C1251      C1422   1.542       .  S
C1252      C1256   1.546       .  S
C1252      C1258   1.544       .  S
C1252      C1257   1.543       .  S
C1252      C1425   1.536       .  S
C1253      C1261   1.378       .  A
C1253      C1256   1.384       .  A
C1254      C1265   1.374       .  A
C1254      C1257   1.413       .  A
C1255      C1269   1.400       .  A
C1255      C1258   1.411       .  A
C1256      C1259   1.392       .  A
C1257      C1263   1.380       .  A
C1258      C1266   1.390       .  A
C1259      N1260   1.359       .  A
C1259      H1272   1.078       .  S
N1260      C1261   1.352       .  A
N1260      C1360   1.424       .  S
C1261      H1262   1.082       .  S
C1263      N1264   1.355       .  A
N1264      C1265   1.358       .  A
N1264      C1429   1.432       .  S
C1265      H1271   1.083       .  S
C1266      N1267   1.348       .  A
N1267      C1269   1.342       .  A
C1269      H1270   1.073       .  S
Fe1274     O1290   2.066       .  S
Fe1274     O1280   2.048       .  S
Fe1274     O1287   2.046       .  S
Fe1274     O1279   2.077       .  S
Fe1274     O1285   1.948       .  S
Fe1275     O1278   2.062       .  S
Fe1275     O1282   2.119       .  S
Fe1275     O1286   2.074       .  S
Fe1275     O1291   2.093       .  S
Fe1275     O1285   1.949       .  S
Fe1276     O1294   2.061       .  S
Fe1276     O1281   2.051       .  S
Fe1276     O1288   2.048       .  S
Fe1276     O1277   2.098       .  S
Fe1276     O1285   1.960       .  S
O1277      C1284   1.270       .  A
O1278      C1292   1.269       .  A
O1279      C1284   1.271       .  A
O1280      C1283   1.267       .  A
O1281      C1293   1.274       .  A
O1282      C1295   1.280       .  A
C1283      O1288   1.264       .  A
C1283      C1418   1.448       .  S
C1284      C1421   1.487       .  S
O1286      C1289   1.269       .  A
O1287      C1289   1.267       .  A
C1289      C1402   1.468       .  S
O1290      C1295   1.270       .  A
O1291      C1293   1.278       .  A
C1292      O1294   1.264       .  A
C1292      C1405   1.467       .  S
C1293      C1413   1.473       .  S
C1295      C1410   1.501       .  S
C1296      C1298   1.529       .  S
C1296      C1300   1.533       .  S
C1296      C1299   1.537       .  S
C1296      C1398   1.531       .  S
C1297      C1301   1.555       .  S
C1297      C1303   1.544       .  S
C1297      C1302   1.555       .  S
C1297      C1409   1.544       .  S
C1298      C1306   1.372       .  A
C1298      C1301   1.393       .  A
C1299      C1310   1.372       .  A
C1299      C1302   1.409       .  A
C1300      C1314   1.388       .  A
C1300      C1303   1.397       .  A
C1301      C1304   1.390       .  A
C1302      C1308   1.384       .  A
C1303      C1311   1.387       .  A
C1304      N1305   1.360       .  A
C1304      H1317   1.079       .  S
N1305      C1306   1.350       .  A
N1305      C1382   1.425       .  S
C1306      H1307   1.083       .  S
C1308      N1309   1.362       .  A
C1308      H1318   1.082       .  S
N1309      C1310   1.359       .  A
C1311      N1312   1.357       .  A
C1311      H1313   1.082       .  S
N1312      C1314   1.345       .  A
N1312      C1362   1.436       .  S
C1314      H1315   1.083       .  S
Fe1319     O1335   2.055       .  S
Fe1319     O1325   2.079       .  S
Fe1319     O1332   2.072       .  S
Fe1319     O1324   2.048       .  S
Fe1319     O1330   1.927       .  S
Fe1320     O1327   2.118       .  S
Fe1320     O1331   2.084       .  S
Fe1320     O1330   1.940       .  S
Fe1321     O1339   2.094       .  S
Fe1321     O1333   2.036       .  S
O1322      C1329   1.269       .  A
O1323      C1337   1.273       .  A
O1324      C1329   1.260       .  A
O1325      C1328   1.278   1_565  A
O1326      C1338   1.270       .  A
O1327      C1340   1.280       .  A
C1328      C1393   1.454       .  S
C1329      C1397   1.472       .  S
O1331      C1334   1.273       .  A
O1332      C1334   1.270       .  A
C1334      C1386   1.481       .  S
O1335      C1340   1.270       .  A
C1337      O1339   1.276       .  A
C1337      C1389   1.476       .  S
Fe1341     O1357   2.113       .  S
Fe1341     O1347   2.068       .  S
Fe1341     O1354   2.122       .  S
Fe1341     O1346   2.085       .  S
Fe1341     O1352   1.948       .  S
Fe1342     O1345   2.057       .  S
Fe1342     O1349   2.019       .  S
Fe1342     O1353   2.031       .  S
Fe1342     O1358   2.013       .  S
Fe1342     O1352   1.945       .  S
Fe1343     O1361   2.059       .  S
Fe1343     O1348   2.101       .  S
Fe1343     O1355   2.085       .  S
Fe1343     O1344   2.057       .  S
Fe1343     O1352   1.940       .  S
O1344      C1351   1.270       .  A
O1345      C1359   1.279       .  A
O1346      C1351   1.277       .  A
O1347      C1350   1.270       .  A
O1348      C1360   1.274       .  A
O1349      C1362   1.246       .  A
C1350      O1355   1.274       .  A
C1350      C1385   1.482       .  S
C1351      C1434   1.478   1_455  S
O1353      C1356   1.271       .  A
O1354      C1356   1.285       .  A
C1356      C1390   1.467       .  S
O1357      C1362   1.265       .  A
O1358      C1360   1.255       .  A
C1359      O1361   1.270       .  A
C1359      C1417   1.462       .  S
Fe1363     O1376   2.108       .  S
Fe1363     O1368   2.064       .  S
Fe1363     O1374   1.947       .  S
Fe1364     O1367   2.029       .  S
Fe1364     O1371   2.038       .  S
Fe1364     O1375   2.022       .  S
Fe1364     O1380   2.046       .  S
Fe1364     O1374   1.944       .  S
Fe1365     O1383   2.093       .  S
Fe1365     O1377   2.052       .  S
O1366      C1373   1.277       .  A
O1367      C1381   1.265   1_565  A
O1368      C1373   1.275       .  A
O1369      C1372   1.270       .  A
O1370      C1382   1.271       .  A
O1371      C1384   1.256   1_565  A
C1372      O1377   1.266       .  A
C1372      C1401   1.468       .  S
C1373      C1438   1.475       .  S
O1375      C1378   1.268       .  A
O1376      C1378   1.280       .  A
C1378      C1406   1.461       .  S
O1380      C1382   1.263       .  A
C1381      C1394   1.456       .  S
C1385      C1386   1.350       .  D
C1385      H1387   1.087       .  S
C1386      H1388   1.086       .  S
C1389      C1390   1.341       .  D
C1389      H1391   1.087       .  S
C1390      H1392   1.086       .  S
C1393      C1394   1.332       .  D
C1393      H1395   1.087       .  S
C1397      C1398   1.354       .  D
C1397      H1399   1.087       .  S
C1398      H1400   1.085       .  S
C1401      C1402   1.342       .  D
C1401      H1403   1.088       .  S
C1402      H1404   1.086       .  S
C1405      C1406   1.335       .  D
C1405      H1407   1.088       .  S
C1406      H1408   1.086       .  S
C1409      C1410   1.358       .  D
C1409      H1411   1.085       .  S
C1410      H1412   1.079       .  S
C1413      C1414   1.340       .  D
C1413      H1415   1.087       .  S
C1414      H1416   1.087       .  S
C1417      C1418   1.326       .  D
C1417      H1419   1.088       .  S
C1418      H1420   1.088       .  S
C1421      C1422   1.344       .  D
C1421      H1423   1.079       .  S
C1422      H1424   1.081       .  S
C1425      C1426   1.351       .  D
C1425      H1427   1.083       .  S
C1429      H1431   1.086       .  S
C1430      H1432   1.087       .  S
C1433      C1434   1.353       .  D
C1433      H1435   1.086       .  S
C1434      H1436   1.087       .  S
C1437      C1438   1.349       .  D
C1438      H1440   1.087       .  S
C1441      C1442   1.345       .  D
C1441      H1443   1.086       .  S
C1442      H1444   1.088       .  S
C1445      C1446   1.338       .  D
C1445      H1447   1.086       .  S
C1446      H1448   1.088       .  S
C1449      C1450   1.330       .  D
C1450      H1452   1.088       .  S
C1453      C1454   1.358       .  D
C1453      H1455   1.089       .  S
C1454      H1456   1.085       .  S
C1457      C1458   1.345       .  D
C1457      H1459   1.087       .  S
C1458      H1460   1.087       .  S
C1461      C1462   1.339       .  D
C1461      H1463   1.089       .  S
C1462      H1464   1.086       .  S
C1465      C1466   1.350       .  D
C1465      H1467   1.080       .  S
C1466      H1468   1.086       .  S
C1469      H1471   1.086       .  S
C1470      H1472   1.087       .  S
C1473      C1474   1.335       .  D
C1473      H1475   1.088       .  S
C1474      H1476   1.087       .  S
C1477      C1478   1.362       .  D
C1477      H1479   1.087       .  S
C1478      H1480   1.085       .  S
C1481      C1482   1.359       .  D
C1482      H1484   1.086       .  S
C1485      C1486   1.345       .  D
C1485      H1487   1.087       .  S
