geometry optimzed in LAMMPS
_audit_creation_date              2020-12-01 
_audit_creation_method            'lammps2cif' 
_symmetry_space_group_name_H-M    'P1' 
_symmetry_Int_Tables_number       1 
_symmetry_cell_setting            triclinic 
loop_ 
_symmetry_equiv_pos_as_xyz 
  x,y,z 
_cell_length_a                    68.35624451 
_cell_length_b                    60.9384868946053 
_cell_length_c                    42.322416946428525 
_cell_angle_alpha                 89.78622978227332 
_cell_angle_beta                  90.31268513185897 
_cell_angle_gamma                 90.01943172500089 
loop_ 
_atom_site_label 
_atom_site_type_symbol 
_atom_site_fract_x 
_atom_site_fract_y 
_atom_site_fract_z 
_atom_site_charge 
N1          N  0.56711159  0.48938753  0.03780379    -0.35900
N2          N  0.60998382  0.49052063  0.04338180    -0.56500
N3          N  0.61232366  0.51670311  0.98730551    -0.35900
N4          N  0.56908657  0.51464900  0.98029276    -0.56500
C5          C  0.57130176  0.47130628  0.05541954     0.27700
C6          C  0.54933056  0.48613378  0.02425441     0.27700
C7          C  0.63160522  0.51253080  0.99241214     0.27700
C8          C  0.61038455  0.52309570  0.95683075     0.27700
C9          C  0.60509946  0.48097620  0.07103398     0.36300
C10         C  0.62876558  0.49713823  0.04642585     0.36300
C11         C  0.54931655  0.51195036  0.98077844     0.36300
C12         C  0.57367863  0.52354852  0.95185722     0.36300
C13         C  0.55634284  0.45613139  0.05228288    -0.21200
C14         C  0.54271253  0.46524384  0.03190683    -0.21200
C15         C  0.64194581  0.51644823  0.96486112    -0.21200
C16         C  0.62864354  0.52332840  0.94260535    -0.21200
C17         C  0.62078306  0.48170805  0.09193357    -0.22200
C18         C  0.63571940  0.49216791  0.07643350    -0.22200
C19         C  0.54177185  0.51757488  0.95132346    -0.22200
C20         C  0.55693542  0.52568625  0.93364373    -0.22200
C21         C  0.58769453  0.46903778  0.07576025    -0.17600
C22         C  0.53874175  0.50206363  0.00632750    -0.17600
C23         C  0.59276392  0.52872462  0.94101561    -0.17600
C24         C  0.64013501  0.50548897  0.02134803    -0.17600
H25         H  0.55534430  0.44020709  0.06356545     0.15300
H26         H  0.52912496  0.45770491  0.02442944     0.15300
H27         H  0.65742177  0.51421614  0.96078874     0.15300
H28         H  0.63203290  0.52747791  0.91835577     0.15300
H29         H  0.62158507  0.47491245  0.11556333     0.13600
H30         H  0.65017314  0.49525039  0.08596665     0.13600
H31         H  0.52719596  0.51475192  0.94225242     0.13600
H32         H  0.55589746  0.53121926  0.90936456     0.13600
H33         H  0.57484763  0.50414944  0.03797089     0.26900
H34         H  0.60134742  0.51697592  0.00417658     0.26900
N35         N  0.44359268  0.48708609  0.03540554    -0.35900
N36         N  0.44339697  0.51127921  0.97768882    -0.56500
N37         N  0.48688732  0.51432516  0.97949212    -0.35900
N38         N  0.48682821  0.49225955  0.03982667    -0.56500
C39         C  0.42393667  0.48947124  0.03112288     0.27700
C40         C  0.44655942  0.48122647  0.06594897     0.27700
C41         C  0.48132320  0.53158446  0.96113978     0.27700
C42         C  0.50485051  0.51905979  0.99152103     0.27700
C43         C  0.42492272  0.50334859  0.97609274     0.36300
C44         C  0.44751084  0.51954108  0.94887632     0.36300
C45         C  0.48332103  0.48368972  0.06889655     0.36300
C46         C  0.50643619  0.49588603  0.03798712     0.36300
C47         C  0.41447485  0.48502118  0.05930652    -0.21200
C48         C  0.42863582  0.47950693  0.08101919    -0.21200
C49         C  0.49555084  0.54775757  0.96237399    -0.21200
C50         C  0.51010010  0.54015751  0.98241642    -0.21200
C51         C  0.41740345  0.50624203  0.94589052    -0.22200
C52         C  0.43167807  0.51660829  0.92868156    -0.22200
C53         C  0.50053301  0.48293724  0.08619320    -0.22200
C54         C  0.51492590  0.49135010  0.06718701    -0.22200
C55         C  0.41436309  0.49522561  0.00232837    -0.17600
C56         C  0.46484402  0.47710212  0.08088366    -0.17600
C57         C  0.51624495  0.50469135  0.01085952    -0.17600
C58         C  0.46418531  0.53236904  0.94215070    -0.17600
H59         H  0.39899962  0.48598626  0.06419175     0.15300
H60         H  0.42594869  0.47521858  0.10543901     0.15300
H61         H  0.49535839  0.56345895  0.95033657     0.15300
H62         H  0.52326841  0.54893290  0.98899263     0.15300
H63         H  0.40303663  0.50171854  0.93725422     0.13600
H64         H  0.43037626  0.52186137  0.90430118     0.13600
H65         H  0.50238363  0.47777814  0.11052707     0.13600
H66         H  0.52977001  0.49452115  0.07480533     0.13600
H67         H  0.45420753  0.48746212  0.01819439     0.26900
H68         H  0.47976189  0.49929747  0.98116014     0.26900
In69       In  0.40903190  0.63947401  0.70867340     1.36900
C70         C  0.44622689  0.64663538  0.69456578     0.78300
O71         O  0.40246189  0.67001056  0.68110929    -0.60200
O72         O  0.39751073  0.67105546  0.73044201    -0.51100
C73         C  0.38356789  0.61678119  0.67325456     0.71000
O74         O  0.40087764  0.62079437  0.66505176    -0.45900
C75         C  0.41655914  0.61519341  0.76013862     0.75700
O76         O  0.43550311  0.63394463  0.67852468    -0.57800
O77         O  0.40430426  0.63071214  0.76014099    -0.47900
O78         O  0.43777297  0.65595579  0.71724147    -0.54200
C79         C  0.39772324  0.68144998  0.70455911     0.85800
O80         O  0.37904938  0.62436045  0.69995350    -0.56100
O81         O  0.42375316  0.61116575  0.73349036    -0.59400
In82       In  0.41954467  0.37648117  0.32592783     1.36900
C83         C  0.45663949  0.36974489  0.34297802     0.78300
O84         O  0.41154885  0.34651103  0.35395597    -0.60200
O85         O  0.40259228  0.34776600  0.30585118    -0.51100
C86         C  0.39363482  0.39955054  0.35849313     0.71000
O87         O  0.41052473  0.39501470  0.36874174    -0.45900
C88         C  0.42815111  0.40013283  0.27433483     0.75700
O89         O  0.44629778  0.38467713  0.35484906    -0.57800
O90         O  0.42385924  0.38000180  0.27291111    -0.47900
O91         O  0.44778018  0.35773171  0.32343147    -0.54200
C92         C  0.40327151  0.33680595  0.33128159     0.85800
O93         O  0.38986209  0.39229484  0.33121059    -0.56100
O94         O  0.42693128  0.40818438  0.30155583    -0.59400
C95         C  0.28227435  0.50077776  0.51596318     0.80900
N96         N  0.29146758  0.51602900  0.53439254    -0.77400
C97         C  0.31137718  0.51689883  0.53538685     0.83400
N98         N  0.32189410  0.50239304  0.51827967    -0.77300
C99         C  0.31300409  0.48737974  0.49961550     0.83500
N100        N  0.29314694  0.48665264  0.49833741    -0.79000
In101      In  0.41311685  0.88249222  0.69931259     1.36900
C102        C  0.45050148  0.87391076  0.68681012     0.78300
O103        O  0.42375477  0.91362397  0.72372416    -0.60200
O104        O  0.41294183  0.88767841  0.75194719    -0.51100
C105        C  0.38654343  0.90220455  0.66174029     0.71000
O106        O  0.40343814  0.89695809  0.65265324    -0.45900
C107        C  0.39978521  0.84129266  0.70096582     0.75700
O108        O  0.44140655  0.88908961  0.67256054    -0.57800
O109        O  0.39728589  0.85462052  0.72336008    -0.47900
O110        O  0.44040450  0.86338150  0.70640583    -0.54200
C111        C  0.42096464  0.90628550  0.75123435     0.85800
O112        O  0.38321071  0.89765175  0.69029962    -0.56100
O113        O  0.40791575  0.84947562  0.67695250    -0.59400
In114      In  0.41370062  0.13904818  0.30957291     1.36900
C115        C  0.45085129  0.14489138  0.32623867     0.78300
O116        O  0.41469147  0.13529779  0.25616690    -0.60200
O117        O  0.42497507  0.10909458  0.28455177    -0.51100
C118        C  0.38732481  0.11594247  0.34240409     0.71000
O119        O  0.40478015  0.11872346  0.35114977    -0.45900
C120        C  0.39970350  0.17978747  0.31495486     0.75700
O121        O  0.44005714  0.13067674  0.33904153    -0.57800
O122        O  0.39830661  0.16884327  0.28973082    -0.47900
O123        O  0.44235947  0.15692744  0.30615515    -0.54200
C124        C  0.42291063  0.11677052  0.25713520     0.85800
O125        O  0.38310867  0.12494009  0.31632919    -0.56100
O126        O  0.40772936  0.16964719  0.33761623    -0.59400
C127        C  0.27903650  0.00768906  0.49861753     0.80900
N128        N  0.28862375  0.99187888  0.51558254    -0.77400
C129        C  0.30852063  0.99149053  0.51632225     0.83400
N130        N  0.31866433  0.00673458  0.49974601    -0.77300
C131        C  0.30941305  0.02252855  0.48270052     0.83500
N132        N  0.28949334  0.02313482  0.48241999    -0.79000
N133        N  0.61535066  0.97829438  0.99126700    -0.35900
N134        N  0.61627577  0.00720501  0.04425808    -0.56500
N135        N  0.57283872  0.00738149  0.04578860    -0.35900
N136        N  0.57193031  0.97875119  0.99164626    -0.56500
C137        C  0.63401473  0.98579751  0.98863064     0.27700
C138        C  0.61083896  0.96790464  0.96401323     0.27700
C139        C  0.57737258  0.01303807  0.07594188     0.27700
C140        C  0.55363489  0.00150296  0.04524716     0.27700
C141        C  0.63581906  0.00650808  0.03909793     0.36300
C142        C  0.61369531  0.01805936  0.07167410     0.36300
C143        C  0.57546750  0.96073274  0.97387169     0.36300
C144        C  0.55270954  0.97811576  0.99951669     0.36300
C145        C  0.64132390  0.98005017  0.95930498    -0.21200
C146        C  0.62677958  0.96870664  0.94386326    -0.21200
C147        C  0.56110059  0.01017246  0.09488150    -0.21200
C148        C  0.54638253  0.00219947  0.07580075    -0.21200
C149        C  0.64566685  0.01676034  0.06364654    -0.22200
C150        C  0.63169751  0.02428465  0.08402499    -0.22200
C151        C  0.55866085  0.94814816  0.97146713    -0.22200
C152        C  0.54440452  0.95884610  0.98837822    -0.22200
C153        C  0.64481820  0.99731338  0.01208747    -0.17600
C154        C  0.59317283  0.95653807  0.95765386    -0.17600
C155        C  0.54299110  0.99421393  0.01809021    -0.17600
C156        C  0.59556193  0.02128079  0.08697790    -0.17600
H157        H  0.65564668  0.98368650  0.94986257     0.15300
H158        H  0.62785214  0.96186334  0.92037477     0.15300
H159        H  0.56012011  0.01290032  0.12008214     0.15300
H160        H  0.53204306  0.99715691  0.08373604     0.15300
H161        H  0.66128587  0.01845898  0.06695292     0.13600
H162        H  0.63457842  0.03283641  0.10592576     0.13600
H163        H  0.55689712  0.93283053  0.95890851     0.13600
H164        H  0.52960165  0.95311304  0.99205027     0.13600
H165        H  0.60666557  0.97814759  0.01136862     0.26900
H166        H  0.58177862  0.00943086  0.02613640     0.26900
N167        N  0.44687286  0.99378369  0.98440841    -0.35900
N168        N  0.44827465  0.01222544  0.04530202    -0.56500
N169        N  0.49197896  0.01012841  0.04518935    -0.35900
N170        N  0.49052186  0.99359166  0.98199233    -0.56500
C171        C  0.42760208  0.99849642  0.98842454     0.27700
C172        C  0.44978325  0.99139689  0.95309290     0.27700
C173        C  0.48793998  0.02657425  0.06569523     0.27700
C174        C  0.51064706  0.01305325  0.03517648     0.27700
C175        C  0.42909328  0.00673345  0.04534708     0.36300
C176        C  0.45280261  0.01849547  0.07492503     0.36300
C177        C  0.48641391  0.98769001  0.95175530     0.36300
C178        C  0.51036964  0.99374338  0.98516244     0.36300
C179        C  0.41828812  0.99921205  0.95929748    -0.21200
C180        C  0.43222609  0.99464179  0.93706449    -0.21200
C181        C  0.50398473  0.04033877  0.06822742    -0.21200
C182        C  0.51808634  0.03217862  0.04831284    -0.21200
C183        C  0.42151343  0.00904181  0.07545534    -0.22200
C184        C  0.43646459  0.01684523  0.09409386    -0.22200
C185        C  0.50363916  0.98519007  0.93519596    -0.22200
C186        C  0.51865674  0.98979789  0.95584377    -0.22200
C187        C  0.41818684  0.00183692  0.01776963    -0.17600
C188        C  0.46743401  0.98505968  0.93831492    -0.17600
C189        C  0.52075889  0.99913930  0.01369566    -0.17600
C190        C  0.47054003  0.02876051  0.08339345    -0.17600
H191        H  0.40306985  0.00281549  0.95441857     0.15300
H192        H  0.42971598  0.99386463  0.91181851     0.15300
H193        H  0.50529395  0.05491581  0.08262000     0.15300
H194        H  0.53223636  0.03953212  0.04398743     0.15300
H195        H  0.40669508  0.00599023  0.08313844     0.13600
H196        H  0.43531791  0.02128153  0.11875193     0.13600
H197        H  0.50524649  0.98139862  0.91039841     0.13600
H198        H  0.53387086  0.99097666  0.94926412     0.13600
H199        H  0.45700253  0.98989223  0.00195830     0.26900
H200        H  0.48314773  0.99654547  0.04050959     0.26900
In201      In  0.62916871  0.86682055  0.70202336     1.36900
C202        C  0.59181558  0.86372710  0.68346662     0.78300
O203        O  0.63497553  0.83484228  0.67693083    -0.60200
O204        O  0.64021679  0.83613069  0.72622122    -0.51100
C205        C  0.65654202  0.88904642  0.66905417     0.71000
O206        O  0.63969150  0.88483814  0.65865155    -0.45900
C207        C  0.62221868  0.88842417  0.75593470     0.75700
O208        O  0.60368662  0.87693847  0.67094627    -0.57800
O209        O  0.63291015  0.87162301  0.75484064    -0.47900
O210        O  0.59921945  0.85159863  0.70453940    -0.54200
C211        C  0.63996200  0.82457904  0.70162964     0.85800
O212        O  0.65969147  0.88170744  0.69649172    -0.56100
O213        O  0.61610515  0.89485984  0.72938039    -0.59400
In214      In  0.62980622  0.12888520  0.32928295     1.36900
C215        C  0.59189716  0.13298223  0.34356318     0.78300
O216        O  0.63532148  0.16188566  0.35083774    -0.60200
O217        O  0.64489690  0.15666792  0.30375686    -0.51100
C218        C  0.65708620  0.11034382  0.36624732     0.71000
O219        O  0.63995839  0.11443467  0.37553669    -0.45900
C220        C  0.62454458  0.10322864  0.27897278     0.75700
O221        O  0.60239855  0.11790599  0.35502519    -0.57800
O222        O  0.62687868  0.12368003  0.27670746    -0.47900
O223        O  0.60092473  0.14619584  0.32601658    -0.54200
C224        C  0.64324622  0.16989855  0.32649174     0.85800
O225        O  0.66044956  0.11618436  0.33817949    -0.56100
O226        O  0.62567531  0.09586039  0.30670668    -0.59400
C227        C  0.76682861  0.99923249  0.51771915     0.80900
N228        N  0.75709338  0.01488408  0.50053796    -0.77400
C229        C  0.73727042  0.01659707  0.50270306     0.83400
N230        N  0.72735871  0.00192572  0.52066295    -0.77300
C231        C  0.73671276  0.98595446  0.53714614     0.83500
N232        N  0.75658956  0.98501227  0.53639308    -0.79000
In233      In  0.62533584  0.62473517  0.68878093     1.36900
C234        C  0.58691077  0.63131886  0.68143896     0.78300
O235        O  0.62018289  0.59197841  0.71231273    -0.60200
O236        O  0.62860096  0.61883341  0.74091777    -0.51100
C237        C  0.64871322  0.60488919  0.64731500     0.71000
O238        O  0.63079790  0.60835828  0.64219304    -0.45900
C239        C  0.63867674  0.66575926  0.68691444     0.75700
O240        O  0.59638354  0.61788201  0.66495246    -0.57800
O241        O  0.64113684  0.65357167  0.71078907    -0.47900
O242        O  0.59709448  0.64158035  0.70132265    -0.54200
C243        C  0.62324577  0.59907539  0.73977122     0.85800
O244        O  0.65481047  0.61161960  0.67378911    -0.56100
O245        O  0.63048307  0.65653149  0.66373714    -0.59400
In246      In  0.63386854  0.36889081  0.32058683     1.36900
C247        C  0.59737086  0.35956858  0.33741692     0.78300
O248        O  0.61791248  0.39629426  0.29603557    -0.60200
O249        O  0.63611325  0.37638721  0.26784556    -0.51100
C250        C  0.65797001  0.39489789  0.35354340     0.71000
O251        O  0.64103678  0.38967896  0.36225924    -0.45900
C252        C  0.64843824  0.32835459  0.32649161     0.75700
O253        O  0.60765192  0.37370648  0.35150239    -0.57800
O254        O  0.64806130  0.33834169  0.30026693    -0.47900
O255        O  0.60599379  0.34962260  0.31544265    -0.54200
C256        C  0.62405987  0.39209037  0.26880746     0.85800
O257        O  0.66310459  0.38643982  0.32769193    -0.56100
O258        O  0.64260016  0.33960322  0.34949916    -0.59400
C259        C  0.76956617  0.51449242  0.48945966     0.80900
N260        N  0.75888566  0.52783779  0.50851465    -0.77400
C261        C  0.73906277  0.52603449  0.50944934     0.83400
N262        N  0.73001512  0.51075716  0.49121421    -0.77300
C263        C  0.74049368  0.49729694  0.47216422     0.83500
N264        N  0.76028953  0.49920886  0.47139649    -0.79000
N265        N  0.11050826  0.49021979  0.47791057    -0.35900
N266        N  0.10812617  0.51497043  0.53424344    -0.56500
N267        N  0.06523640  0.51698713  0.52861052    -0.35900
N268        N  0.06721175  0.49288537  0.47074272    -0.56500
C269        C  0.12964031  0.49557206  0.48244482     0.27700
C270        C  0.10828400  0.48518815  0.44704875     0.27700
C271        C  0.06991787  0.53484537  0.54601662     0.27700
C272        C  0.04782883  0.52118182  0.51450391     0.27700
C273        C  0.12674922  0.50792677  0.53742069     0.36300
C274        C  0.10296675  0.52332399  0.56237149     0.36300
C275        C  0.07167586  0.48288147  0.44310733     0.36300
C276        C  0.04739427  0.49524145  0.47156073     0.36300
C277        C  0.13955670  0.49403110  0.45409970    -0.21200
C278        C  0.12615023  0.48732444  0.43185733    -0.21200
C279        C  0.05569200  0.55083172  0.54218528    -0.21200
C280        C  0.04195242  0.54240263  0.52153742    -0.21200
C281        C  0.13327288  0.51112352  0.56811553    -0.22200
C282        C  0.11816476  0.52098710  0.58397210    -0.22200
C283        C  0.05475729  0.47960383  0.42568954    -0.22200
C284        C  0.03964476  0.48820141  0.44293798    -0.22200
C285        C  0.13835144  0.50136406  0.51172653    -0.17600
C286        C  0.09082195  0.47813356  0.43202889    -0.17600
C287        C  0.03694190  0.50572093  0.49672517    -0.17600
C288        C  0.08614943  0.53625565  0.56660016    -0.17600
H289        H  0.15482018  0.49753529  0.44971440     0.15300
H290        H  0.12918228  0.48463824  0.40709684     0.15300
H291        H  0.05526340  0.56683384  0.55316778     0.15300
H292        H  0.02877620  0.55059351  0.51350544     0.15300
H293        H  0.14759789  0.50745948  0.57776838     0.13600
H294        H  0.11860141  0.52663847  0.60818222     0.13600
H295        H  0.05349940  0.47297064  0.40209564     0.13600
H296        H  0.02494645  0.49029167  0.43396945     0.13600
H297        H  0.09995887  0.48795806  0.49526756     0.26900
H298        H  0.07239357  0.50185804  0.52913778     0.26900
N299        N  0.98573487  0.49314423  0.47027276    -0.35900
N300        N  0.98486479  0.51701015  0.52877593    -0.56500
N301        N  0.94160952  0.52143347  0.52333903    -0.35900
N302        N  0.94262456  0.49625447  0.46729424    -0.56500
C303        C  0.00326852  0.48859813  0.48369944     0.27700
C304        C  0.98016450  0.47508483  0.45399186     0.27700
C305        C  0.94427630  0.52706960  0.55387364     0.27700
C306        C  0.92217880  0.51755219  0.51913910     0.27700
C307        C  0.00450803  0.51341423  0.52767600     0.36300
C308        C  0.98099902  0.52594427  0.55738530     0.36300
C309        C  0.94720388  0.48764784  0.43907840     0.36300
C310        C  0.92420489  0.50398995  0.46454300     0.36300
C311        C  0.00831110  0.46698454  0.47756895    -0.21200
C312        C  0.99395295  0.45863742  0.45792586    -0.21200
C313        C  0.92632630  0.52720323  0.56910138    -0.21200
C314        C  0.91245960  0.52093589  0.54734111    -0.21200
C315        C  0.01264453  0.51841079  0.55691604    -0.22200
C316        C  0.99800671  0.52702535  0.57514986    -0.22200
C317        C  0.93183822  0.49043901  0.41790487    -0.22200
C318        C  0.91723812  0.50090447  0.43407743    -0.22200
C319        C  0.01450523  0.50367110  0.50151468    -0.17600
C320        C  0.96338002  0.47383793  0.43457880    -0.17600
C321        C  0.91308795  0.51129384  0.49034603    -0.17600
C322        C  0.96231354  0.53222828  0.56871006    -0.17600
H323        H  0.02124625  0.45839253  0.48575441     0.15300
H324        H  0.99361288  0.44233620  0.44787957     0.15300
H325        H  0.92351601  0.53087664  0.59365662     0.15300
H326        H  0.89703957  0.51883296  0.55207345     0.15300
H327        H  0.02734346  0.51519060  0.56521851     0.13600
H328        H  0.99953805  0.53236071  0.59940050     0.13600
H329        H  0.93094729  0.48467999  0.39377455     0.13600
H330        H  0.90294955  0.50511381  0.42475464     0.13600
H331        H  0.97889472  0.50845967  0.46978981     0.26900
H332        H  0.95226471  0.52217560  0.50593261     0.26900
In333      In  0.91856641  0.62921745  0.81470580     1.36900
C334        C  0.95594783  0.63869877  0.82381211     0.78300
O335        O  0.92471060  0.59661182  0.79152562    -0.60200
O336        O  0.91860764  0.62382799  0.76202799    -0.51100
C337        C  0.89683265  0.60803705  0.85643988     0.71000
O338        O  0.91482742  0.61156562  0.86041723    -0.45900
C339        C  0.90291965  0.66901227  0.81580362     0.75700
O340        O  0.94731348  0.62406447  0.83952975    -0.57800
O341        O  0.90025125  0.65598353  0.79303259    -0.47900
O342        O  0.94534939  0.64878565  0.80425671    -0.54200
C343        C  0.92377139  0.60403616  0.76380747     0.85800
O344        O  0.88975607  0.61545503  0.83090060    -0.56100
O345        O  0.91235107  0.66105249  0.83885397    -0.59400
In346      In  0.92021689  0.37192815  0.19358983     1.36900
C347        C  0.95742486  0.36197314  0.18313100     0.78300
O348        O  0.93551275  0.40022960  0.21596638    -0.60200
O349        O  0.91604221  0.38148152  0.24445600    -0.51100
C350        C  0.89400566  0.39592025  0.16168746     0.71000
O351        O  0.91061702  0.39112364  0.15073699    -0.45900
C352        C  0.90732954  0.33105474  0.18762441     0.75700
O353        O  0.94782109  0.37470804  0.16513077    -0.57800
O354        O  0.90799332  0.34055118  0.21413594    -0.47900
O355        O  0.94782327  0.35402728  0.20579713    -0.54200
C356        C  0.92841460  0.39690824  0.24296360     0.85800
O357        O  0.89081406  0.38852007  0.18905783    -0.56100
O358        O  0.91189579  0.34298331  0.16442530    -0.59400
C359        C  0.78331966  0.50918594  0.01621365     0.80900
N360        N  0.79310666  0.49343029  0.03292268    -0.77400
C361        C  0.81283692  0.49142918  0.03001713     0.83400
N362        N  0.82267066  0.50530514  0.01063100    -0.77300
C363        C  0.81309448  0.52120088  0.99427247     0.83500
N364        N  0.79340445  0.52304310  0.99704137    -0.79000
In365      In  0.91617670  0.86861833  0.80097307     1.36900
C366        C  0.95388183  0.86695966  0.81731974     0.78300
O367        O  0.91047823  0.83932273  0.83117044    -0.60200
O368        O  0.90160042  0.83753950  0.78302049    -0.51100
C369        C  0.89109751  0.89155958  0.83544833     0.71000
O370        O  0.90831177  0.88721295  0.84422943    -0.45900
C371        C  0.92169339  0.88853266  0.74547743     0.75700
O372        O  0.94367111  0.88392647  0.82094564    -0.57800
O373        O  0.92035640  0.86794909  0.74774829    -0.47900
O374        O  0.94475681  0.85089410  0.80597654    -0.54200
C375        C  0.90341988  0.82773103  0.80929373     0.85800
O376        O  0.88624716  0.88346072  0.80908794    -0.56100
O377        O  0.91871368  0.89862588  0.77082094    -0.59400
In378      In  0.92697234  0.13158321  0.17907055     1.36900
C379        C  0.96365268  0.13184213  0.15917505     0.78300
O380        O  0.92050093  0.16454679  0.15746508    -0.60200
O381        O  0.91216204  0.15901318  0.20511280    -0.51100
C382        C  0.90070993  0.11200856  0.14186406     0.71000
O383        O  0.91814029  0.11530208  0.13349844    -0.45900
C384        C  0.93427772  0.11205958  0.23454833     0.75700
O385        O  0.95345758  0.11463680  0.15951487    -0.57800
O386        O  0.93796597  0.13191796  0.22911293    -0.47900
O387        O  0.95479742  0.14894291  0.16751923    -0.54200
C388        C  0.91326336  0.17238900  0.18235523     0.85800
O389        O  0.89669736  0.11883047  0.16917473    -0.56100
O390        O  0.92595459  0.10222022  0.21203934    -0.59400
C391        C  0.78853307  0.00281733  0.99446590     0.80900
N392        N  0.79841064  0.01933727  0.00950037    -0.77400
C393        C  0.81829670  0.02065287  0.00718099     0.83400
N394        N  0.82803569  0.00548273  0.99004846    -0.77300
C395        C  0.81846357  0.98914246  0.97497018     0.83500
N396        N  0.79868079  0.98780531  0.97723325    -0.79000
N397        N  0.10689508  0.01789769  0.47455082    -0.35900
N398        N  0.06376600  0.01885246  0.47070236    -0.56500
N399        N  0.06277305  0.99161693  0.52703539    -0.35900
N400        N  0.10565320  0.98902512  0.52804201    -0.56500
C401        C  0.10407436  0.02939556  0.44750041     0.27700
C402        C  0.12589827  0.01131022  0.47498635     0.27700
C403        C  0.04442497  0.00000741  0.52536149     0.27700
C404        C  0.06652301  0.98733960  0.55796363     0.27700
C405        C  0.06809669  0.03613438  0.45179928     0.36300
C406        C  0.04422839  0.01959749  0.47605400     0.36300
C407        C  0.12522644  0.98814555  0.52366648     0.36300
C408        C  0.10177772  0.97728941  0.55435988     0.36300
C409        C  0.12140407  0.03011586  0.43059046    -0.21200
C410        C  0.13509851  0.01870595  0.44783424    -0.21200
C411        C  0.03691054  0.00217734  0.55555164    -0.21200
C412        C  0.05065259  0.99364179  0.57605356    -0.21200
C413        C  0.05140882  0.04834870  0.44585988    -0.22200
C414        C  0.03642364  0.03822234  0.46181168    -0.22200
C415        C  0.13379874  0.97539489  0.54710643    -0.22200
C416        C  0.11894950  0.96816748  0.56612844    -0.22200
C417        C  0.08666410  0.04042420  0.43847394    -0.17600
C418        C  0.13543707  0.99908100  0.49920050    -0.17600
C419        C  0.08362165  0.97732278  0.57030583    -0.17600
C420        C  0.03418412  0.00524654  0.49708961    -0.17600
H421        H  0.12399639  0.03810107  0.40811572     0.15300
H422        H  0.15014905  0.01610837  0.44098597     0.15300
H423        H  0.02277137  0.00873823  0.56197361     0.15300
H424        H  0.04920979  0.99240007  0.60145059     0.15300
H425        H  0.05026377  0.06331655  0.43212277     0.13600
H426        H  0.02173294  0.04460810  0.46390213     0.13600
H427        H  0.14914976  0.97194553  0.55076633     0.13600
H428        H  0.12083175  0.95812057  0.58704832     0.13600
H429        H  0.09684179  0.01671670  0.49269603     0.26900
H430        H  0.07133297  0.98699852  0.50785374     0.26900
N431        N  0.93968247  0.98561809  0.52204027    -0.35900
N432        N  0.93909307  0.01615891  0.47126979    -0.56500
N433        N  0.98248652  0.01600447  0.46934944    -0.35900
N434        N  0.98295226  0.98339126  0.51842825    -0.56500
C435        C  0.92009315  0.98653082  0.51654180     0.27700
C436        C  0.94311440  0.96743994  0.53957327     0.27700
C437        C  0.97722606  0.02185889  0.43957583     0.27700
C438        C  0.00094240  0.00794665  0.46791437     0.27700
C439        C  0.92014265  0.01825224  0.47973973     0.36300
C440        C  0.94265663  0.03189362  0.44959399     0.36300
C441        C  0.97984570  0.96700545  0.53952227     0.36300
C442        C  0.00260029  0.98475719  0.51428873     0.36300
C443        C  0.91111693  0.96871853  0.53090515    -0.21200
C444        C  0.92554152  0.95691163  0.54575151    -0.21200
C445        C  0.99228396  0.01695963  0.41894713    -0.21200
C446        C  0.00708137  0.00770747  0.43675276    -0.21200
C447        C  0.91174506  0.03585834  0.46386400    -0.22200
C448        C  0.92595520  0.04432704  0.44443545    -0.22200
C449        C  0.99738835  0.95714779  0.54759886    -0.22200
C450        C  0.01164366  0.96778409  0.53080144    -0.22200
C451        C  0.91006859  0.00307350  0.49915681    -0.17600
C452        C  0.96146123  0.96020452  0.55120948    -0.17600
C453        C  0.01204280  0.00037749  0.49419004    -0.17600
C454        C  0.95965989  0.03263872  0.43096472    -0.17600
H455        H  0.89579551  0.96431894  0.53050974     0.15300
H456        H  0.92327928  0.94198253  0.55913523     0.15300
H457        H  0.99254398  0.01966320  0.39366414     0.15300
H458        H  0.02084404  0.00159891  0.42783305     0.15300
H459        H  0.89682557  0.04165051  0.46537575     0.13600
H460        H  0.92405355  0.05765576  0.42772417     0.13600
H461        H  0.99958838  0.94310320  0.56294069     0.13600
H462        H  0.02681598  0.96284595  0.53016222     0.13600
H463        H  0.94993170  0.99768333  0.51695768     0.26900
H464        H  0.97469623  0.01924971  0.48994648     0.26900
In465      In  0.13373701  0.63702250  0.80703963     1.36900
C466        C  0.09707119  0.64211010  0.82511697     0.78300
O467        O  0.14106524  0.66712295  0.83543707    -0.60200
O468        O  0.14561552  0.66841134  0.78603998    -0.51100
C469        C  0.15950752  0.61198580  0.83895346     0.71000
O470        O  0.14284245  0.61685485  0.84920118    -0.45900
C471        C  0.12480019  0.61773665  0.75209004     0.75700
O472        O  0.10831893  0.62812222  0.83763558    -0.57800
O473        O  0.13829918  0.63171959  0.75474474    -0.47900
O474        O  0.10485989  0.65413847  0.80439128    -0.54200
C475        C  0.14590534  0.67856798  0.81191066     0.85800
O476        O  0.16311342  0.61970796  0.81193026    -0.56100
O477        O  0.11683338  0.61254528  0.77776823    -0.59400
In478      In  0.13704582  0.37445122  0.19171355     1.36900
C479        C  0.09895088  0.36818056  0.18014113     0.78300
O480        O  0.14159547  0.34195537  0.16738319    -0.60200
O481        O  0.15347554  0.34596367  0.21332831    -0.51100
C482        C  0.16021801  0.39789427  0.15297015     0.71000
O483        O  0.14308217  0.39202992  0.14615184    -0.45900
C484        C  0.13208219  0.39697588  0.24518824     0.75700
O485        O  0.10922556  0.38166583  0.16487773    -0.57800
O486        O  0.14104773  0.37895475  0.24427936    -0.47900
O487        O  0.10819007  0.35762891  0.20105943    -0.54200
C488        C  0.15043558  0.33322106  0.19044310     0.85800
O489        O  0.16607262  0.39124504  0.17966258    -0.56100
O490        O  0.12684120  0.40418747  0.21856162    -0.59400
C491        C  0.27038283  0.50337772  0.99198340     0.80900
N492        N  0.25961966  0.51766511  0.97401663    -0.77400
C493        C  0.23973326  0.51800971  0.97638173     0.83400
N494        N  0.23076999  0.50401605  0.99672945    -0.77300
C495        C  0.24125855  0.48974358  0.01473154     0.83500
N496        N  0.26107727  0.48947386  0.01226009    -0.79000
In497      In  0.13150167  0.87869237  0.81428382     1.36900
C498        C  0.09482261  0.87600979  0.83432436     0.78300
O499        O  0.13840115  0.90610086  0.77919117    -0.60200
O500        O  0.11477811  0.88486448  0.76929285    -0.51100
C501        C  0.15532622  0.89830813  0.85599816     0.71000
O502        O  0.13709392  0.89673377  0.85961492    -0.45900
C503        C  0.14472322  0.83773792  0.80869301     0.75700
O504        O  0.10469502  0.89346011  0.83603387    -0.57800
O505        O  0.14442605  0.85088407  0.78555342    -0.47900
O506        O  0.10415185  0.85959541  0.82448501    -0.54200
C507        C  0.12416071  0.90165946  0.76125533     0.85800
O508        O  0.16156353  0.88998891  0.83068561    -0.56100
O509        O  0.13945471  0.84601243  0.83450013    -0.59400
In510      In  0.13935336  0.13291726  0.19247060     1.36900
C511        C  0.10343692  0.13847606  0.17001069     0.78300
O512        O  0.12568971  0.10496751  0.21882824    -0.60200
O513        O  0.13694646  0.13102716  0.24619687    -0.51100
C514        C  0.16582396  0.10796632  0.16291175     0.71000
O515        O  0.14891401  0.11174865  0.15244487    -0.45900
C516        C  0.15250999  0.17400991  0.18649729     0.75700
O517        O  0.11431140  0.12304662  0.16110416    -0.57800
O518        O  0.15326938  0.16367762  0.21242077    -0.47900
O519        O  0.11111867  0.15138630  0.18963851    -0.54200
C520        C  0.12765849  0.11314713  0.24583845     0.85800
O521        O  0.16955975  0.11708517  0.18901814    -0.56100
O522        O  0.14629241  0.16283522  0.16352205    -0.59400
C523        C  0.27408618  0.99503736  0.01270904     0.80900
N524        N  0.26403637  0.98149844  0.99281122    -0.77400
C525        C  0.24418286  0.98195888  0.99171311     0.83400
N526        N  0.23444943  0.99612127  0.01048806    -0.77300
C527        C  0.24403735  0.00982441  0.03040538     0.83500
N528        N  0.26400785  0.00929022  0.03158808    -0.79000
C529        C  0.20667440  0.07391245  0.12358221     0.16700
C530        C  0.22411643  0.06344116  0.11432454    -0.32400
C531        C  0.22337335  0.04958071  0.08773158     0.21100
C532        C  0.20597178  0.04635978  0.07139782     0.03200
C533        C  0.18872599  0.05700403  0.08029528    -0.22100
C534        C  0.18949858  0.07080313  0.10663051     0.12400
S535        S  0.20409773  0.09095707  0.15552338    -0.05800
C536        C  0.17973613  0.09400222  0.14549015    -0.09200
C537        C  0.17412079  0.08231810  0.11890038    -0.25800
S538        S  0.20754165  0.02848440  0.04078984    -0.03000
C539        C  0.23209431  0.02525767  0.04930224    -0.16500
C540        C  0.23857141  0.03758101  0.07496119    -0.14500
H541        H  0.23759672  0.06584647  0.12740039     0.20900
H542        H  0.17519791  0.05446136  0.06737039     0.16900
H543        H  0.15944784  0.08215635  0.10909683     0.19400
H544        H  0.25340376  0.03748634  0.08405549     0.12800
C545        C  0.18142720  0.93074361  0.92153421     0.16700
C546        C  0.18602055  0.94477663  0.94663416    -0.32400
C547        C  0.20569006  0.95057714  0.95099216     0.21100
C548        C  0.22030486  0.94239218  0.93177467     0.03200
C549        C  0.21571866  0.92813942  0.90674710    -0.22100
C550        C  0.19591151  0.92273765  0.90186360     0.12400
S551        S  0.15826249  0.92302307  0.91124933    -0.05800
C552        C  0.16799562  0.90927892  0.87950946    -0.09200
C553        C  0.18826876  0.91030435  0.87766447    -0.25800
S554        S  0.24326121  0.95185264  0.94099959    -0.03000
C555        C  0.23293163  0.96718000  0.97077175    -0.16500
C556        C  0.21280106  0.96480256  0.97320410    -0.14500
H557        H  0.17467600  0.95134016  0.96165726     0.20900
H558        H  0.22701637  0.92197372  0.89130598     0.16900
H559        H  0.19688464  0.90281358  0.85922195     0.19400
H560        H  0.20375805  0.97315616  0.99031462     0.12800
C561        C  0.15754500  0.23537527  0.16756199     0.16700
C562        C  0.15551451  0.25627158  0.15393001    -0.32400
C563        C  0.15717420  0.27454035  0.17383619     0.21100
C564        C  0.16125191  0.27217340  0.20579802     0.03200
C565        C  0.16351039  0.25124040  0.21940460    -0.22100
C566        C  0.16131506  0.23291164  0.19960918     0.12400
S567        S  0.15394538  0.21126647  0.14793933    -0.05800
C568        C  0.15707687  0.19760756  0.18333593    -0.09200
C569        C  0.16118153  0.21121805  0.20878897    -0.25800
S570        S  0.16160098  0.29638445  0.22615101    -0.03000
C571        C  0.15571986  0.30974787  0.19137280    -0.16500
C572        C  0.15398051  0.29603612  0.16543921    -0.14500
H573        H  0.15199531  0.25817738  0.12909262     0.20900
H574        H  0.16610351  0.24930888  0.24452463     0.16900
H575        H  0.16287527  0.20564556  0.23297501     0.19400
H576        H  0.14983518  0.30141287  0.14192169     0.12800
C577        C  0.22038822  0.45182997  0.07979711     0.16700
C578        C  0.21702106  0.43835126  0.10633344    -0.32400
C579        C  0.19792069  0.43029004  0.11091266     0.21100
C580        C  0.18296786  0.43542182  0.08987212     0.03200
C581        C  0.18626470  0.44908207  0.06374190    -0.22100
C582        C  0.20524003  0.45717120  0.05927199     0.12400
S583        S  0.24248238  0.46297859  0.06938701    -0.05800
C584        C  0.23105079  0.47518892  0.03736777    -0.09200
C585        C  0.21119910  0.47064876  0.03514931    -0.25800
S586        S  0.16100291  0.42372630  0.09865197    -0.03000
C587        C  0.17180348  0.41180953  0.13132039    -0.16500
C588        C  0.19154345  0.41681091  0.13504621    -0.14500
H589        H  0.22877340  0.43423396  0.12255021     0.20900
H590        H  0.17452719  0.45314384  0.04745567     0.16900
H591        H  0.20160713  0.47679402  0.01668228     0.19400
H592        H  0.20071224  0.41080738  0.15414301     0.12800
C593        C  0.15310768  0.77668306  0.79072599     0.16700
C594        C  0.15417682  0.75577113  0.77697362    -0.32400
C595        C  0.15325295  0.73743440  0.79718805     0.21100
C596        C  0.15160276  0.73982709  0.82964055     0.03200
C597        C  0.15077986  0.76067210  0.84336797    -0.22100
C598        C  0.15143447  0.77893941  0.82318207     0.12400
S599        S  0.15235324  0.80103747  0.77036560    -0.05800
C600        C  0.14955140  0.81425630  0.80601562    -0.09200
C601        C  0.14949364  0.80039428  0.83204552    -0.25800
S602        S  0.14924673  0.71572633  0.84995468    -0.03000
C603        C  0.15023366  0.70217884  0.81437309    -0.16500
C604        C  0.15263616  0.71578773  0.78829536    -0.14500
H605        H  0.15505372  0.75386420  0.75159422     0.20900
H606        H  0.14905449  0.76256824  0.86863308     0.16900
H607        H  0.14727810  0.80567293  0.85617294     0.19400
H608        H  0.15289314  0.71022210  0.76403092     0.12800
C609        C  0.20056463  0.57869848  0.87981227     0.16700
C610        C  0.21794544  0.56789726  0.88880689    -0.32400
C611        C  0.21798172  0.55611081  0.91750087     0.21100
C612        C  0.20143309  0.55523951  0.93627645     0.03200
C613        C  0.18420897  0.56617118  0.92748422    -0.22100
C614        C  0.18415737  0.57781700  0.89888268     0.12400
S615        S  0.19719125  0.59353013  0.84569776    -0.05800
C616        C  0.17348005  0.59855261  0.85743834    -0.09200
C617        C  0.16865082  0.58916874  0.88625029    -0.25800
S618        S  0.20388978  0.53940060  0.96931053    -0.03000
C619        C  0.22753502  0.53364797  0.95801986    -0.16500
C620        C  0.23315740  0.54388816  0.93006527    -0.14500
H621        H  0.23077628  0.56844268  0.87393887     0.20900
H622        H  0.17128674  0.56537778  0.94213944     0.16900
H623        H  0.15447540  0.59054531  0.89738435     0.19400
H624        H  0.24730187  0.54192344  0.91904142     0.12800
C625        C  0.10035043  0.08317970  0.37573193     0.16700
C626        C  0.11001081  0.09963842  0.35844584    -0.32400
C627        C  0.11075968  0.09738193  0.32542769     0.21100
C628        C  0.10186638  0.07979258  0.31038283     0.03200
C629        C  0.09176829  0.06373939  0.32753397    -0.22100
C630        C  0.09138784  0.06572283  0.36047028     0.12400
S631        S  0.10024717  0.08108427  0.41603897    -0.05800
C632        C  0.08812934  0.05640465  0.41209410    -0.09200
C633        C  0.08413563  0.05047399  0.38120461    -0.25800
S634        S  0.10531494  0.07908996  0.27057606    -0.03000
C635        C  0.11906781  0.10265227  0.27396798    -0.16500
C636        C  0.12056899  0.11074190  0.30451953    -0.14500
H637        H  0.11737311  0.11304590  0.37029913     0.20900
H638        H  0.08519844  0.04977970  0.31578856     0.16900
H639        H  0.07769350  0.03496544  0.37429297     0.19400
H640        H  0.12860417  0.12535890  0.31109755     0.12800
C641        C  0.08560607  0.94183935  0.64498170     0.16700
C642        C  0.08680857  0.92369977  0.66542418    -0.32400
C643        C  0.09988748  0.92500529  0.69107776     0.21100
C644        C  0.11101263  0.94365243  0.69652111     0.03200
C645        C  0.10931815  0.96203864  0.67670252    -0.22100
C646        C  0.09649875  0.96061592  0.65078511     0.12400
S647        S  0.07315526  0.94223356  0.60978676    -0.05800
C648        C  0.08312601  0.96772072  0.60259305    -0.09200
C649        C  0.09468681  0.97575093  0.62696584    -0.25800
S650        S  0.12675669  0.94153948  0.72796836    -0.03000
C651        C  0.11817257  0.91529084  0.73401462    -0.16500
C652        C  0.10383603  0.90874747  0.71267227    -0.14500
H653        H  0.07858637  0.90885861  0.66074910     0.20900
H654        H  0.11821444  0.97650007  0.68055391     0.16900
H655        H  0.10295641  0.99089029  0.62573079     0.19400
H656        H  0.09666194  0.89289944  0.71297951     0.12800
C657        C  0.01808105  0.12344036  0.14376832     0.16700
C658        C  0.03698599  0.11481109  0.14109349    -0.32400
C659        C  0.05272212  0.12901831  0.14695167     0.21100
C660        C  0.04977161  0.15093324  0.15436920     0.03200
C661        C  0.03093479  0.15972586  0.15580635    -0.22100
C662        C  0.01523262  0.14542531  0.15079575     0.12400
S663        S  0.99706765  0.10832267  0.14224244    -0.05800
C664        C  0.98446631  0.13189387  0.15135888    -0.09200
C665        C  0.99595422  0.15041256  0.15481852    -0.25800
S666        S  0.07039985  0.16476876  0.16503820    -0.03000
C667        C  0.08312094  0.14077698  0.15966246    -0.16500
C668        C  0.07199935  0.12318434  0.14935601    -0.14500
H669        H  0.03930276  0.09753642  0.13650684     0.20900
H670        H  0.02858572  0.17666410  0.16245351     0.16900
H671        H  0.99059336  0.16640473  0.16175101     0.19400
H672        H  0.07747670  0.10666287  0.14620562     0.12800
C673        C  0.85642650  0.05972106  0.04281189     0.16700
C674        C  0.87401414  0.07011723  0.05106883    -0.32400
C675        C  0.87464659  0.08157835  0.07968659     0.21100
C676        C  0.85835855  0.08297819  0.09896868     0.03200
C677        C  0.84067694  0.07270754  0.09054362    -0.22100
C678        C  0.84012388  0.06088264  0.06211176     0.12400
S679        S  0.85340825  0.04358706  0.01045133    -0.05800
C680        C  0.82999247  0.03782898  0.02308215    -0.09200
C681        C  0.82475743  0.04847057  0.05073969    -0.25800
S682        S  0.86233040  0.09709377  0.13321772    -0.03000
C683        C  0.88622436  0.10085864  0.12164867    -0.16500
C684        C  0.89069180  0.09182967  0.09254050    -0.14500
H685        H  0.88681931  0.06879757  0.03623615     0.20900
H686        H  0.82807329  0.07342653  0.10588707     0.16900
H687        H  0.81093887  0.04630160  0.06273972     0.19400
H688        H  0.90499824  0.09234875  0.08167904     0.12800
C689        C  0.95129242  0.09190285  0.31619916     0.16700
C690        C  0.95836204  0.08993770  0.34727374    -0.32400
C691        C  0.95702606  0.06929064  0.36189570     0.21100
C692        C  0.94922889  0.05136215  0.34608770     0.03200
C693        C  0.94238564  0.05328154  0.31493955    -0.22100
C694        C  0.94345182  0.07396951  0.30049436     0.12400
S695        S  0.95082822  0.11569116  0.29480115    -0.05800
C696        C  0.93970372  0.10140066  0.26458050    -0.09200
C697        C  0.93682034  0.07930000  0.27078625    -0.25800
S698        S  0.94791243  0.02799502  0.36824096    -0.03000
C699        C  0.95792203  0.04248168  0.39912374    -0.16500
C700        C  0.96213749  0.06425110  0.39249452    -0.14500
H701        H  0.96426042  0.10397985  0.35971242     0.20900
H702        H  0.93607913  0.03935658  0.30274956     0.16900
H703        H  0.93012625  0.06780329  0.25453957     0.19400
H704        H  0.96796361  0.07585035  0.40943415     0.12800
C705        C  0.00841336  0.85624149  0.83063119     0.16700
C706        C  0.02733632  0.84743841  0.83104926    -0.32400
C707        C  0.04289899  0.86177515  0.83733845     0.21100
C708        C  0.03973730  0.88381571  0.84359571     0.03200
C709        C  0.02076914  0.89255379  0.84367085    -0.22100
C710        C  0.00523012  0.87830230  0.83674670     0.12400
S711        S  0.98784455  0.84190223  0.82092753    -0.05800
C712        C  0.97481962  0.86587784  0.82489237    -0.09200
C713        C  0.98589184  0.88393807  0.83362826    -0.25800
S714        S  0.06062071  0.89886344  0.84802998    -0.03000
C715        C  0.07374252  0.87533821  0.84072957    -0.16500
C716        C  0.06241434  0.85676421  0.83590547    -0.14500
H717        H  0.02987339  0.83033536  0.82554946     0.20900
H718        H  0.01830082  0.90985962  0.84778141     0.16900
H719        H  0.98020675  0.90039114  0.83653823     0.19400
H720        H  0.06811779  0.84076769  0.82974670     0.12800
C721        C  0.85261214  0.92655760  0.87810666     0.16700
C722        C  0.83580483  0.93761781  0.88848463    -0.32400
C723        C  0.83735818  0.95012607  0.91624315     0.21100
C724        C  0.85494243  0.95177021  0.93258252     0.03200
C725        C  0.87163537  0.94061356  0.92239817    -0.22100
C726        C  0.87000834  0.92794350  0.89498007     0.12400
S727        S  0.85398078  0.91054337  0.84499623    -0.05800
C728        C  0.87810382  0.90540562  0.85453534    -0.09200
C729        C  0.88461587  0.91583520  0.88164734    -0.25800
S730        S  0.85424861  0.96854080  0.96466267    -0.03000
C731        C  0.82988767  0.97327499  0.95643490    -0.16500
C732        C  0.82279191  0.96226139  0.93010937    -0.14500
H733        H  0.82215309  0.93655992  0.87548717     0.20900
H734        H  0.88534075  0.94182712  0.93523874     0.16900
H735        H  0.89934590  0.91468224  0.89107730     0.19400
H736        H  0.80800230  0.96364966  0.92103359     0.12800
C737        C  0.93945556  0.92608393  0.67907805     0.16700
C738        C  0.94607184  0.94385309  0.66116537    -0.32400
C739        C  0.95220245  0.93969975  0.63031972     0.21100
C740        C  0.95187221  0.91876154  0.61760017     0.03200
C741        C  0.94553894  0.90079445  0.63582346    -0.22100
C742        C  0.93927229  0.90499658  0.66684412     0.12400
S743        S  0.93111614  0.92811453  0.71675526    -0.05800
C744        C  0.92744970  0.90018355  0.71649575    -0.09200
C745        C  0.93239070  0.88994591  0.68838422    -0.25800
S746        S  0.95806484  0.91787388  0.57841195    -0.03000
C747        C  0.96092387  0.94600122  0.57961146    -0.16500
C748        C  0.95762620  0.95524223  0.60883153    -0.14500
H749        H  0.94605237  0.96033406  0.67066199     0.20900
H750        H  0.94506328  0.88440781  0.62604773     0.16900
H751        H  0.93137774  0.87246381  0.68420147     0.19400
H752        H  0.95769398  0.97272396  0.61339572     0.12800
C753        C  0.01212539  0.34803443  0.18603283     0.16700
C754        C  0.03099021  0.34156733  0.19549891    -0.32400
C755        C  0.04693898  0.35278051  0.18223171     0.21100
C756        C  0.04422428  0.36917245  0.15980655     0.03200
C757        C  0.02542612  0.37511853  0.14963605    -0.22100
C758        C  0.00949475  0.36441334  0.16356099     0.12400
S759        S  0.99086067  0.33882156  0.20251911    -0.05800
C760        C  0.97840624  0.35746252  0.17914420    -0.09200
C761        C  0.99017480  0.36966500  0.15921048    -0.25800
S762        S  0.06520908  0.38207033  0.14841000    -0.03000
C763        C  0.07783432  0.36543044  0.17437212    -0.16500
C764        C  0.06627614  0.35046163  0.19056698    -0.14500
H765        H  0.03311014  0.32916426  0.21358625     0.20900
H766        H  0.02327746  0.38830430  0.13274888     0.16900
H767        H  0.98497983  0.38264982  0.14377423     0.19400
H768        H  0.07164553  0.33905309  0.20827307     0.12800
C769        C  0.90195455  0.23240544  0.20223256     0.16700
C770        C  0.90000788  0.25276958  0.21727928    -0.32400
C771        C  0.90065731  0.27172968  0.19836897     0.21100
C772        C  0.90261553  0.27041785  0.16582527     0.03200
C773        C  0.90437646  0.25007088  0.15076182    -0.22100
C774        C  0.90429068  0.23116879  0.16975677     0.12400
S775        S  0.90328469  0.20765279  0.22123103    -0.05800
C776        C  0.90756852  0.19559835  0.18516336    -0.09200
C777        C  0.90753009  0.21008367  0.15982218    -0.25800
S778        S  0.90445366  0.29520917  0.14725518    -0.03000
C779        C  0.90306930  0.30754121  0.18374020    -0.16500
C780        C  0.90083000  0.29305262  0.20881289    -0.14500
H781        H  0.89880843  0.25382182  0.24273005     0.20900
H782        H  0.90651999  0.24907022  0.12547321     0.16900
H783        H  0.91048803  0.20554761  0.13559463     0.19400
H784        H  0.90046486  0.29778402  0.23344166     0.12800
C785        C  0.84844449  0.44931812  0.06494924     0.16700
C786        C  0.86489541  0.43636545  0.07136507    -0.32400
C787        C  0.86668188  0.42723423  0.10162806     0.21100
C788        C  0.85253747  0.43049493  0.12449394     0.03200
C789        C  0.83580073  0.44319570  0.11787949    -0.22100
C790        C  0.83413995  0.45261938  0.08757044     0.12400
S791        S  0.84485269  0.46341572  0.03062421    -0.05800
C792        C  0.82383735  0.47408238  0.04665226    -0.09200
C793        C  0.81970325  0.46663761  0.07695808    -0.25800
S794        S  0.85795868  0.41840132  0.16008362    -0.03000
C795        C  0.87950599  0.40903308  0.14384419    -0.16500
C796        C  0.88212630  0.41498827  0.11255151    -0.14500
H797        H  0.87613989  0.43403750  0.05376499     0.20900
H798        H  0.82483533  0.44604826  0.13576786     0.16900
H799        H  0.80745355  0.47210512  0.09100488     0.19400
H800        H  0.89475864  0.41068578  0.09853831     0.12800
C801        C  0.04315206  0.63505475  0.84494183     0.16700
C802        C  0.02488065  0.62674176  0.85369464    -0.32400
C803        C  0.00828322  0.63678875  0.84061622     0.21100
C804        C  0.00977256  0.65445321  0.81997551     0.03200
C805        C  0.02802515  0.66290663  0.81148298    -0.22100
C806        C  0.04462221  0.65271933  0.82430805     0.12400
S807        S  0.06503653  0.62403709  0.85616560    -0.05800
C808        C  0.07621382  0.64322902  0.83243076    -0.09200
C809        C  0.06360577  0.65759613  0.81721401    -0.25800
S810        S  0.98800260  0.66352862  0.80521342    -0.03000
C811        C  0.97683760  0.64321106  0.82691789    -0.16500
C812        C  0.98933141  0.63033260  0.84487030    -0.14500
H813        H  0.02367000  0.61267763  0.86928148     0.20900
H814        H  0.02925242  0.67641123  0.79490163     0.16900
H815        H  0.06804107  0.67019082  0.80060216     0.19400
H816        H  0.98485813  0.61649343  0.85925225     0.12800
C817        C  0.89122235  0.72931706  0.79849819     0.16700
C818        C  0.88867057  0.74980769  0.78371778    -0.32400
C819        C  0.89286549  0.76869047  0.80147600     0.21100
C820        C  0.89886904  0.76716810  0.83276869     0.03200
C821        C  0.90116771  0.74674206  0.84763202    -0.22100
C822        C  0.89742647  0.72791176  0.82969130     0.12400
S823        S  0.88901660  0.70449905  0.78010879    -0.05800
C824        C  0.89697838  0.69219987  0.81457480    -0.09200
C825        C  0.90063267  0.70666365  0.83910492    -0.25800
S826        S  0.90448757  0.79169059  0.84976403    -0.03000
C827        C  0.89903180  0.80427868  0.81428284    -0.16500
C828        C  0.89287239  0.79003641  0.79069683    -0.14500
H829        H  0.88437519  0.75095003  0.75910363     0.20900
H830        H  0.90641299  0.74556565  0.87177281     0.16900
H831        H  0.90646192  0.70199332  0.86201169     0.19400
H832        H  0.88945230  0.79490118  0.76666134     0.12800
C833        C  0.87356612  0.57353979  0.92184523     0.16700
C834        C  0.86984805  0.55960693  0.94748926    -0.32400
C835        C  0.85046594  0.55296394  0.95229465     0.21100
C836        C  0.83538251  0.56012990  0.93278748     0.03200
C837        C  0.83910119  0.57411585  0.90716135    -0.22100
C838        C  0.85853469  0.58050932  0.90206306     0.12400
S839        S  0.89616798  0.58278207  0.91140505    -0.05800
C840        C  0.88529315  0.59589667  0.87978267    -0.09200
C841        C  0.86519688  0.59339365  0.87780486    -0.25800
S842        S  0.81288554  0.55010232  0.94259789    -0.03000
C843        C  0.82397912  0.53588043  0.97303741    -0.16500
C844        C  0.84402693  0.53896005  0.97534341    -0.14500
H845        H  0.88158445  0.55394159  0.96275337     0.20900
H846        H  0.82740586  0.57953791  0.89164074     0.16900
H847        H  0.85602098  0.60037670  0.85941216     0.19400
H848        H  0.85339739  0.53133106  0.99293812     0.12800
C849        C  0.94582192  0.43305885  0.37313485     0.16700
C850        C  0.93350747  0.41996809  0.35458530    -0.32400
C851        C  0.93737206  0.41883667  0.32219802     0.21100
C852        C  0.95297276  0.43003509  0.30886847     0.03200
C853        C  0.96530835  0.44318531  0.32744015    -0.22100
C854        C  0.96126629  0.44455523  0.35983233     0.12400
S855        S  0.94234982  0.43800856  0.41223203    -0.05800
C856        C  0.96137936  0.45652761  0.41045778    -0.09200
C857        C  0.97040569  0.45796393  0.38130683    -0.25800
S858        S  0.95532428  0.42619384  0.26916682    -0.03000
C859        C  0.93505940  0.40936993  0.27063362    -0.16500
C860        C  0.92697642  0.40701720  0.30034326    -0.14500
H861        H  0.92119723  0.41138447  0.36486113     0.20900
H862        H  0.97728408  0.45226136  0.31700795     0.16900
H863        H  0.98180273  0.46962317  0.37548284     0.19400
H864        H  0.91443187  0.39684641  0.30576443     0.12800
C865        C  0.95129104  0.57177721  0.63620993     0.16700
C866        C  0.94416424  0.58940077  0.65391618    -0.32400
C867        C  0.93957874  0.58548001  0.68567006     0.21100
C868        C  0.94235868  0.56503758  0.69947184     0.03200
C869        C  0.94965562  0.54740869  0.68179550    -0.22100
C870        C  0.95390038  0.55122258  0.64980005     0.12400
S871        S  0.95583317  0.57279581  0.59666530    -0.05800
C872        C  0.96107153  0.54518782  0.59821257    -0.09200
C873        C  0.95963516  0.53584684  0.62804986    -0.25800
S874        S  0.93609262  0.56384414  0.73851601    -0.03000
C875        C  0.92947419  0.59110385  0.73602285    -0.16500
C876        C  0.93209018  0.60044426  0.70645057    -0.14500
H877        H  0.94182654  0.60535400  0.64318559     0.20900
H878        H  0.95155870  0.53133008  0.69234314     0.16900
H879        H  0.96142724  0.51852527  0.63305383     0.19400
H880        H  0.92914662  0.61745963  0.70067507     0.12800
C881        C  0.10016959  0.45547729  0.34868439     0.16700
C882        C  0.10364482  0.45288306  0.31628120    -0.32400
C883        C  0.11320097  0.43370565  0.30651694     0.21100
C884        C  0.11894987  0.41769773  0.32800629     0.03200
C885        C  0.11540424  0.42023426  0.36042372    -0.22100
C886        C  0.10595084  0.43950255  0.37019919     0.12400
S887        S  0.08979814  0.47815939  0.36542405    -0.05800
C888        C  0.09324673  0.46601725  0.40184368    -0.09200
C889        C  0.10201040  0.44547090  0.40073451    -0.25800
S890        S  0.13021473  0.39557319  0.31128350    -0.03000
C891        C  0.12714752  0.40804173  0.27497385    -0.16500
C892        C  0.11787456  0.42825553  0.27605499    -0.14500
H893        H  0.09929787  0.46540155  0.29943448     0.20900
H894        H  0.11998205  0.40784124  0.37731148     0.16900
H895        H  0.10604452  0.43587818  0.42135580     0.19400
H896        H  0.11441547  0.43825056  0.25556403     0.12800
C897        C  0.11388414  0.59820829  0.66762850     0.16700
C898        C  0.11465421  0.59284668  0.63550214    -0.32400
C899        C  0.10076505  0.57792342  0.62393547     0.21100
C900        C  0.08628091  0.56927805  0.64315072     0.03200
C901        C  0.08523186  0.57505546  0.67513865    -0.22100
C902        C  0.09959077  0.58935107  0.68700518     0.12400
S903        S  0.13052830  0.61437650  0.68680297    -0.05800
C904        C  0.11846089  0.60868284  0.72147170    -0.09200
C905        C  0.10212068  0.59535905  0.71796829    -0.25800
S906        S  0.07214855  0.54963698  0.62545727    -0.03000
C907        C  0.08633968  0.55263170  0.59228551    -0.16500
C908        C  0.10071982  0.56859657  0.59459129    -0.14500
H909        H  0.12617134  0.59917687  0.62054135     0.20900
H910        H  0.07434016  0.56782504  0.69047359     0.16900
H911        H  0.09276121  0.59010288  0.73712843     0.19400
H912        H  0.11153983  0.57189328  0.57657715     0.12800
C913        C  0.82483364  0.52626559  0.49401585     0.16700
C914        C  0.84350759  0.53508806  0.49941929    -0.32400
C915        C  0.85974441  0.52192807  0.49240615     0.21100
C916        C  0.85749349  0.50086370  0.48067845     0.03200
C917        C  0.83882325  0.49216955  0.47472556    -0.22100
C918        C  0.82258553  0.50538012  0.48162267     0.12400
S919        S  0.80332014  0.53921625  0.50240576    -0.05800
C920        C  0.79110423  0.51632518  0.48885826    -0.09200
C921        C  0.80325784  0.49969096  0.47822868    -0.25800
S922        S  0.87899691  0.48723215  0.47501581    -0.03000
C923        C  0.89128289  0.51035880  0.48794277    -0.16500
C924        C  0.87905922  0.52753079  0.49636197    -0.14500
H925        H  0.84530192  0.55140734  0.50904624     0.20900
H926        H  0.83702798  0.47573484  0.46549920     0.16900
H927        H  0.79822789  0.48403424  0.46927978     0.19400
H928        H  0.88406946  0.54324747  0.50510198     0.12800
C929        C  0.68197312  0.43643390  0.40925699     0.16700
C930        C  0.68560726  0.45202360  0.43269851    -0.32400
C931        C  0.70453081  0.46057858  0.43505576     0.21100
C932        C  0.71937266  0.45384505  0.41512893     0.03200
C933        C  0.71568864  0.43827030  0.39129671    -0.22100
C934        C  0.69656804  0.42977721  0.38876154     0.12400
S935        S  0.65989289  0.42425966  0.40322046    -0.05800
C936        C  0.67008188  0.41009163  0.37233728    -0.09200
C937        C  0.68975799  0.41462666  0.36718907    -0.25800
S938        S  0.74142061  0.46626219  0.42262759    -0.03000
C939        C  0.73028510  0.48082239  0.45252860    -0.16500
C940        C  0.71063490  0.47601152  0.45632399    -0.14500
H941        H  0.67411974  0.45728826  0.44847855     0.20900
H942        H  0.72716584  0.43304238  0.37548482     0.16900
H943        H  0.69853733  0.40724517  0.34885678     0.19400
H944        H  0.70123431  0.48342592  0.47382206     0.12800
C945        C  0.71403802  0.56236412  0.57182355     0.16700
C946        C  0.70906756  0.57478413  0.59850564    -0.32400
C947        C  0.68926887  0.58022591  0.60268275     0.21100
C948        C  0.67510426  0.57392848  0.58095174     0.03200
C949        C  0.68007198  0.56156667  0.55428124    -0.22100
C950        C  0.69978756  0.55577411  0.55044535     0.12400
S951        S  0.73709310  0.55334920  0.56298777    -0.05800
C952        C  0.72734021  0.54011085  0.53055532    -0.09200
C953        C  0.70730695  0.54298145  0.52683455    -0.25800
S954        S  0.65191718  0.58200568  0.59031236    -0.03000
C955        C  0.66130662  0.59375926  0.62413434    -0.16500
C956        C  0.68141478  0.59157100  0.62760216    -0.14500
H957        H  0.72009890  0.57969040  0.61552544     0.20900
H958        H  0.66899414  0.55636783  0.53751746     0.16900
H959        H  0.69863225  0.53584448  0.50800520     0.19400
H960        H  0.68981376  0.59785885  0.64735781     0.12800
C961        C  0.82274737  0.99761950  0.52905523     0.16700
C962        C  0.84194050  0.99833245  0.54105619    -0.32400
C963        C  0.85731707  0.00040897  0.51934466     0.21100
C964        C  0.85379704  0.00078320  0.48707722     0.03200
C965        C  0.83459416  0.00046015  0.47508999    -0.22100
C966        C  0.81916977  0.99934179  0.49685810     0.12400
S967        S  0.80207589  0.99552113  0.55147370    -0.05800
C968        C  0.78842315  0.99826095  0.51732812    -0.09200
C969        C  0.79947543  0.00007576  0.49001677    -0.25800
S970        S  0.87449455  0.00195984  0.46463985    -0.03000
C971        C  0.88814182  0.00305618  0.49908420    -0.16500
C972        C  0.87691228  0.00213355  0.52638809    -0.14500
H973        H  0.84474754  0.99758958  0.56624321     0.20900
H974        H  0.83179476  0.00133182  0.44991055     0.16900
H975        H  0.79341026  0.00182799  0.46645137     0.19400
H976        H  0.88284890  0.00228740  0.55016407     0.12800
C977        C  0.65670794  0.23015322  0.30947398     0.16700
C978        C  0.65977024  0.25086063  0.29553100    -0.32400
C979        C  0.65795745  0.26948032  0.31487980     0.21100
C980        C  0.65400964  0.26744288  0.34686901     0.03200
C981        C  0.65136289  0.24679982  0.36086254    -0.22100
C982        C  0.65244578  0.22831893  0.34136564     0.12400
S983        S  0.65594706  0.20570526  0.28962309    -0.05800
C984        C  0.64933404  0.19309867  0.32455779    -0.09200
C985        C  0.64826598  0.20716338  0.35012645    -0.25800
S986        S  0.65047944  0.29174204  0.36583020    -0.03000
C987        C  0.65365863  0.30497034  0.33018969    -0.16500
C988        C  0.65794785  0.29108700  0.30518017    -0.14500
H989        H  0.66243120  0.25244622  0.27042851     0.20900
H990        H  0.64758028  0.24528248  0.38559090     0.16900
H991        H  0.64385355  0.20230702  0.37367788     0.19400
H992        H  0.65960072  0.29637423  0.28088681     0.12800
C993        C  0.69992978  0.05589284  0.46488442     0.16700
C994        C  0.68252351  0.06623311  0.45570601    -0.32400
C995        C  0.68266707  0.07874590  0.42794247     0.21100
C996        C  0.69948114  0.08113107  0.41008654     0.03200
C997        C  0.71712857  0.07103943  0.41963595    -0.22100
C998        C  0.71692375  0.05820351  0.44742604     0.12400
S999        S  0.70187571  0.03856501  0.49629274    -0.05800
C1000       C  0.72586361  0.03380499  0.48598444    -0.09200
C1001       C  0.73206720  0.04572814  0.45974673    -0.25800
S1002       S  0.69601447  0.09613216  0.37612959    -0.03000
C1003       C  0.67173254  0.09913844  0.38639576    -0.16500
C1004       C  0.66682625  0.08910372  0.41465609    -0.14500
H1005       H  0.66923643  0.06407271  0.46919295     0.20900
H1006       H  0.73024288  0.07259482  0.40557307     0.16900
H1007       H  0.74645920  0.04447552  0.44935532     0.19400
H1008       H  0.65225389  0.08888163  0.42457765     0.12800
C1009       C  0.64508549  0.72738741  0.67361506     0.16700
C1010       C  0.64385578  0.74869765  0.66134918    -0.32400
C1011       C  0.64539999  0.76619883  0.68254042     0.21100
C1012       C  0.64843540  0.76272460  0.71459222     0.03200
C1013       C  0.64998008  0.74130363  0.72689642    -0.22100
C1014       C  0.64806048  0.72371091  0.70564764     0.12400
S1015       S  0.64147264  0.70424282  0.65191275    -0.05800
C1016       C  0.64370013  0.68924845  0.68624240    -0.09200
C1017       C  0.64748157  0.70169959  0.71304949    -0.25800
S1018       S  0.64860644  0.78632191  0.73643772    -0.03000
C1019       C  0.64424309  0.80085159  0.70200918    -0.16500
C1020       C  0.64308587  0.78796989  0.67519042    -0.14500
H1021       H  0.64106006  0.75150723  0.63645069     0.20900
H1022       H  0.65188052  0.73847713  0.75200211     0.16900
H1023       H  0.64855324  0.69513847  0.73681275     0.19400
H1024       H  0.63992694  0.79413005  0.65167471     0.12800
C1025       C  0.69852603  0.92099094  0.62835539     0.16700
C1026       C  0.71609435  0.93142755  0.61945643    -0.32400
C1027       C  0.71575905  0.94487147  0.59225326     0.21100
C1028       C  0.69868369  0.94762322  0.57483962     0.03200
C1029       C  0.68135302  0.93693509  0.58334599    -0.22100
C1030       C  0.68166150  0.92367256  0.61043006     0.12400
S1031       S  0.69527972  0.90487484  0.66131266    -0.05800
C1032       C  0.67101848  0.90173505  0.65051167    -0.09200
C1033       C  0.66598434  0.91261099  0.62281933    -0.25800
S1034       S  0.70059439  0.96549813  0.54401318    -0.03000
C1035       C  0.72476642  0.96953246  0.55424367    -0.16500
C1036       C  0.73096362  0.95725170  0.58022743    -0.14500
H1037       H  0.72929893  0.92951191  0.63343642     0.20900
H1038       H  0.66803482  0.93924935  0.56976191     0.16900
H1039       H  0.65144115  0.91275813  0.61253193     0.19400
H1040       H  0.74550849  0.95797886  0.59042480     0.12800
C1041       C  0.32992487  0.98551902  0.00667962     0.16700
C1042       C  0.34885462  0.97761881  0.00041270    -0.32400
C1043       C  0.36486333  0.99043841  0.01031359     0.21100
C1044       C  0.36209032  0.01034440  0.02535892     0.03200
C1045       C  0.34319988  0.01806768  0.03198804    -0.22100
C1046       C  0.32720972  0.00516222  0.02247404     0.12400
S1047       S  0.30859293  0.97282702  0.99591718    -0.05800
C1048       C  0.29580274  0.99404547  0.01327719    -0.09200
C1049       C  0.30771232  0.01002682  0.02662563    -0.25800
S1050       S  0.38326863  0.02388016  0.03445763    -0.03000
C1051       C  0.39624927  0.00216367  0.01890991    -0.16500
C1052       C  0.38441160  0.98560182  0.00666600    -0.14500
H1053       H  0.35100281  0.96220881  0.98825395     0.20900
H1054       H  0.34105796  0.03355143  0.04394390     0.16900
H1055       H  0.30240360  0.02465967  0.03820302     0.19400
H1056       H  0.38986177  0.97082744  0.99563130     0.12800
C1057       C  0.73363905  0.98809547  0.99870159     0.16700
C1058       C  0.71540105  0.97743559  0.99943519    -0.32400
C1059       C  0.69853049  0.99044390  0.00233266     0.21100
C1060       C  0.69975734  0.01311519  0.00387472     0.03200
C1061       C  0.71802928  0.02378451  0.00334179    -0.22100
C1062       C  0.73494577  0.01073656  0.00103620     0.12400
S1063       S  0.75571425  0.97520639  0.99498382    -0.05800
C1064       C  0.76700306  0.00049399  0.99720588    -0.09200
C1065       C  0.75408939  0.01794961  0.00056912    -0.25800
S1066       S  0.67756574  0.02591388  0.00721268    -0.03000
C1067       C  0.66644744  0.00040869  0.00769617    -0.16500
C1068       C  0.67952036  0.98307352  0.00448254    -0.14500
H1069       H  0.71441747  0.95973134  0.99800653     0.20900
H1070       H  0.71901807  0.04148051  0.00491170     0.16900
H1071       H  0.75844334  0.03500801  0.00191509     0.19400
H1072       H  0.67532738  0.96593638  0.00432656     0.12800
C1073       C  0.61318163  0.05996416  0.21584470     0.16700
C1074       C  0.60993672  0.04068228  0.19854848    -0.32400
C1075       C  0.60378483  0.04287982  0.16698809     0.21100
C1076       C  0.60081445  0.06337525  0.15340209     0.03200
C1077       C  0.60405505  0.08262080  0.17068163    -0.22100
C1078       C  0.61042607  0.08042501  0.20206299     0.12400
S1079       S  0.62067622  0.06086877  0.25439380    -0.05800
C1080       C  0.62029599  0.08908661  0.25173226    -0.09200
C1081       C  0.61461363  0.09721199  0.22248886    -0.25800
S1082       S  0.59431855  0.06269579  0.11445031    -0.03000
C1083       C  0.59579620  0.03453733  0.11627783    -0.16500
C1084       C  0.60089475  0.02618927  0.14572710    -0.14500
H1085       H  0.61233646  0.02468804  0.20910466     0.20900
H1086       H  0.60200306  0.09862524  0.15996151     0.16900
H1087       H  0.61327640  0.11447219  0.21667429     0.19400
H1088       H  0.60330934  0.00896882  0.15078291     0.12800
C1089       C  0.60162657  0.92078885  0.82600732     0.16700
C1090       C  0.59176026  0.93557183  0.84557553    -0.32400
C1091       C  0.59372074  0.93287439  0.87835403     0.21100
C1092       C  0.60487433  0.91602223  0.89119389     0.03200
C1093       C  0.61443888  0.90088632  0.87157092    -0.22100
C1094       C  0.61267351  0.90379123  0.83868094     0.12400
S1095       S  0.60159027  0.92197382  0.78570490    -0.05800
C1096       C  0.61653350  0.89923558  0.78564749    -0.09200
C1097       C  0.62129571  0.89131102  0.81555488    -0.25800
S1098       S  0.60729909  0.91727451  0.93142472    -0.03000
C1099       C  0.59328790  0.94086031  0.93080539    -0.16500
C1100       C  0.58679866  0.94693187  0.90096452    -0.14500
H1101       H  0.58337932  0.94903051  0.83564714     0.20900
H1102       H  0.62339713  0.88789534  0.88148107     0.16900
H1103       H  0.63034591  0.87704964  0.82009577     0.19400
H1104       H  0.57892595  0.96195677  0.89582768     0.12800
C1105       C  0.19142947  0.98879035  0.49605149     0.16700
C1106       C  0.21044087  0.98004089  0.49485152    -0.32400
C1107       C  0.22627889  0.99474799  0.49657072     0.21100
C1108       C  0.22330755  0.01720217  0.49866803     0.03200
C1109       C  0.20432493  0.02591510  0.50013437    -0.22100
C1110       C  0.18851902  0.01119411  0.49904268     0.12400
S1111       S  0.17024012  0.97379943  0.49438992    -0.05800
C1112       C  0.15729742  0.99793529  0.49868221    -0.09200
C1113       C  0.16902639  0.01650808  0.50068051    -0.25800
S1114       S  0.24438506  0.03235389  0.49959198    -0.03000
C1115       C  0.25741624  0.00819099  0.49799383    -0.16500
C1116       C  0.24585097  0.98945867  0.49655831    -0.14500
H1117       H  0.21278594  0.96252935  0.49286844     0.20900
H1118       H  0.20197644  0.04342245  0.50219462     0.16900
H1119       H  0.16350489  0.03306608  0.50314250     0.19400
H1120       H  0.25148377  0.97287974  0.49527733     0.12800
C1121       C  0.50591943  0.15490504  0.33374664     0.16700
C1122       C  0.52515923  0.16233867  0.33029150    -0.32400
C1123       C  0.54023975  0.14868377  0.34125763     0.21100
C1124       C  0.53641478  0.12866789  0.35565101     0.03200
C1125       C  0.51710194  0.12139973  0.35968249    -0.22100
C1126       C  0.50200164  0.13492342  0.34819457     0.12400
S1127       S  0.48576632  0.16817427  0.31930286    -0.05800
C1128       C  0.47186800  0.14664545  0.33301009    -0.09200
C1129       C  0.48240357  0.13017071  0.34804534    -0.25800
S1130       S  0.55693022  0.11386523  0.36506414    -0.03000
C1131       C  0.57068842  0.13472527  0.34883085    -0.16500
C1132       C  0.55983876  0.15228804  0.33749928    -0.14500
H1133       H  0.52827981  0.17773303  0.31848332     0.20900
H1134       H  0.51400878  0.10558563  0.37029267     0.16900
H1135       H  0.47613967  0.11512216  0.35719205     0.19400
H1136       H  0.56594702  0.16653109  0.32576321     0.12800
C1137       C  0.34623398  0.08522778  0.38682882     0.16700
C1138       C  0.32866775  0.07613778  0.39830503    -0.32400
C1139       C  0.32979808  0.06215670  0.42488591     0.21100
C1140       C  0.34763970  0.05749799  0.43914431     0.03200
C1141       C  0.36503432  0.06672881  0.42797841    -0.22100
C1142       C  0.36390161  0.08063841  0.40165062     0.12400
S1143       S  0.34842054  0.10219509  0.35452440    -0.05800
C1144       C  0.37332842  0.10313374  0.36153807    -0.09200
C1145       C  0.37936354  0.09089740  0.38744258    -0.25800
S1146       S  0.34639020  0.03949929  0.46991122    -0.03000
C1147       C  0.32144754  0.03802547  0.46399417    -0.16500
C1148       C  0.31458498  0.05114757  0.43931931    -0.14500
H1149       H  0.31480219  0.07961929  0.38686596     0.20900
H1150       H  0.37893897  0.06301777  0.43916503     0.16900
H1151       H  0.39439525  0.08946540  0.39541761     0.19400
H1152       H  0.29945347  0.05203227  0.43173613     0.12800
C1153       C  0.46375489  0.05788163  0.16229836     0.16700
C1154       C  0.45972101  0.06202458  0.19420411    -0.32400
C1155       C  0.44811377  0.08037119  0.20128459     0.21100
C1156       C  0.44130509  0.09434689  0.17775972     0.03200
C1157       C  0.44558305  0.09039339  0.14592235    -0.22100
C1158       C  0.45671241  0.07173101  0.13877693     0.12400
S1159       S  0.47525418  0.03491977  0.14851243    -0.05800
C1160       C  0.47001856  0.04380876  0.11075231    -0.09200
C1161       C  0.46040404  0.06380611  0.10915629    -0.25800
S1162       S  0.42728351  0.11557199  0.19118818    -0.03000
C1163       C  0.43040052  0.10541476  0.22891057    -0.16500
C1164       C  0.44183773  0.08659710  0.23067799    -0.14500
H1165       H  0.46476501  0.05096483  0.21260077     0.20900
H1166       H  0.43989197  0.10097317  0.12742921     0.16900
H1167       H  0.45497467  0.07118406  0.08750167     0.19400
H1168       H  0.44556899  0.07807950  0.25239246     0.12800
C1169       C  0.50391354  0.85543767  0.68806609     0.16700
C1170       C  0.52192310  0.84633314  0.69687226    -0.32400
C1171       C  0.53878960  0.85520399  0.68327521     0.21100
C1172       C  0.53779507  0.87197839  0.66108919     0.03200
C1173       C  0.51965995  0.88080286  0.65171218    -0.22100
C1174       C  0.50275786  0.87237736  0.66613475     0.12400
S1175       S  0.48218769  0.84836219  0.70459882    -0.05800
C1176       C  0.47129460  0.86868488  0.68232056    -0.09200
C1177       C  0.48392753  0.88005285  0.66258704    -0.25800
S1178       S  0.56015020  0.88167925  0.64957174    -0.03000
C1179       C  0.57081341  0.86329622  0.67552439    -0.16500
C1180       C  0.55764969  0.85004083  0.69142644    -0.14500
H1181       H  0.52281100  0.83356288  0.71469158     0.20900
H1182       H  0.51884029  0.89431216  0.63506773     0.16900
H1183       H  0.47971711  0.89364597  0.64747094     0.19400
H1184       H  0.56162464  0.83809529  0.70935701     0.12800
C1185       C  0.34489811  0.93116831  0.61556311     0.16700
C1186       C  0.32771870  0.94197223  0.60550522    -0.32400
C1187       C  0.32805956  0.95279213  0.57602840     0.21100
C1188       C  0.34471376  0.95258583  0.55745247     0.03200
C1189       C  0.36164752  0.94151736  0.56720429    -0.22100
C1190       C  0.36139253  0.93099244  0.59665401     0.12400
S1191       S  0.34821341  0.91834001  0.65135015    -0.05800
C1192       C  0.37209961  0.91299558  0.64065161    -0.09200
C1193       C  0.37689822  0.92048024  0.61073410    -0.25800
S1194       S  0.34301416  0.96785361  0.52379139     0.00200
C1195       C  0.31956974  0.97484580  0.53452848    -0.16500
C1196       C  0.31338178  0.96539305  0.56272094    -0.14500
H1197       H  0.31487873  0.94244996  0.62035477     0.20900
H1198       H  0.37470747  0.94168011  0.55283216     0.16900
H1199       H  0.39121807  0.91888897  0.60015958     0.19400
H1200       H  0.29935812  0.96846945  0.57361946     0.12800
C1201       C  0.43642577  0.92748413  0.83317599     0.16700
C1202       C  0.44036369  0.92984160  0.86548823    -0.32400
C1203       C  0.45090514  0.94837776  0.87518625     0.21100
C1204       C  0.45720195  0.96410870  0.85380923     0.03200
C1205       C  0.45330060  0.96170792  0.82127186    -0.22100
C1206       C  0.44276138  0.94300088  0.81147585     0.12400
S1207       S  0.42401890  0.90592592  0.81701960    -0.05800
C1208       C  0.42727020  0.91771607  0.78037930    -0.09200
C1209       C  0.43753440  0.93745849  0.78098636    -0.25800
S1210       S  0.46871649  0.98610703  0.87115331    -0.03000
C1211       C  0.46509871  0.97371097  0.90741151    -0.16500
C1212       C  0.45548644  0.95370882  0.90571754    -0.14500
H1213       H  0.43533135  0.91775493  0.88242144     0.20900
H1214       H  0.45809838  0.97394940  0.80440472     0.16900
H1215       H  0.44125316  0.94700999  0.76024821     0.19400
H1216       H  0.45111032  0.94414195  0.92611700     0.12800
C1217       C  0.22705856  0.48853206  0.50915738     0.16700
C1218       C  0.20856498  0.47928214  0.50338767    -0.32400
C1219       C  0.19200926  0.49201621  0.51021851     0.21100
C1220       C  0.19380502  0.51306110  0.52220618     0.03200
C1221       C  0.21230735  0.52222159  0.52835281    -0.22100
C1222       C  0.22887369  0.50945592  0.52159120     0.12400
S1223       S  0.24885744  0.47599060  0.50145891    -0.05800
C1224       C  0.26066656  0.49906812  0.51537195    -0.09200
C1225       C  0.24813477  0.51553467  0.52548336    -0.25800
S1226       S  0.17197114  0.52606351  0.52798312    -0.03000
C1227       C  0.16015572  0.50276357  0.51460015    -0.16500
C1228       C  0.17278189  0.48599002  0.50591339    -0.14500
H1229       H  0.20714811  0.46292820  0.49371997     0.20900
H1230       H  0.21372578  0.53865344  0.53774479     0.16900
H1231       H  0.25285177  0.53123891  0.53468770     0.19400
H1232       H  0.16810620  0.47025597  0.49676517     0.12800
C1233       C  0.51142211  0.37223523  0.36224427     0.16700
C1234       C  0.53048502  0.37900833  0.36972544    -0.32400
C1235       C  0.54600904  0.36598200  0.35907256     0.21100
C1236       C  0.54271614  0.34680377  0.34230345     0.03200
C1237       C  0.52364086  0.33971556  0.33559241    -0.22100
C1238       C  0.50813478  0.35302784  0.34555064     0.12400
S1239       S  0.49074728  0.38697269  0.36995763    -0.05800
C1240       C  0.47757697  0.36717713  0.35017273    -0.09200
C1241       C  0.48871101  0.34999610  0.33866757    -0.25800
S1242       S  0.56343687  0.33473745  0.32818863    -0.03000
C1243       C  0.57662491  0.35593464  0.34462329    -0.16500
C1244       C  0.56550098  0.37108987  0.36095934    -0.14500
H1245       H  0.53312875  0.39430642  0.38197154     0.20900
H1246       H  0.52102573  0.32506015  0.32180363     0.16900
H1247       H  0.48298962  0.33646846  0.32489647     0.19400
H1248       H  0.57122457  0.38591812  0.37159877     0.12800
C1249       C  0.39295907  0.27599873  0.34801338     0.16700
C1250       C  0.39433897  0.25451658  0.35996783    -0.32400
C1251       C  0.39173584  0.23711238  0.33866612     0.21100
C1252       C  0.38701062  0.24093280  0.30721653     0.03200
C1253       C  0.38502112  0.26239702  0.29551971    -0.22100
C1254       C  0.38854464  0.27979316  0.31643852     0.12400
S1255       S  0.39899957  0.29912226  0.36861452    -0.05800
C1256       C  0.39625978  0.31396300  0.33408467    -0.09200
C1257       C  0.39017812  0.30158973  0.30840569    -0.25800
S1258       S  0.38650729  0.21785257  0.28440435    -0.03000
C1259       C  0.39345432  0.20292665  0.31722835    -0.16500
C1260       C  0.39529034  0.21527425  0.34461742    -0.14500
H1261       H  0.39859387  0.25151394  0.38428770     0.20900
H1262       H  0.38216962  0.26539778  0.27068472     0.16900
H1263       H  0.38851521  0.30791298  0.28459583     0.19400
H1264       H  0.40019280  0.20884126  0.36719731     0.12800
C1265       C  0.35162762  0.45264113  0.45784629     0.16700
C1266       C  0.36899286  0.44254342  0.44842664    -0.32400
C1267       C  0.36896924  0.43168643  0.41937444     0.21100
C1268       C  0.35240658  0.43084750  0.40035500     0.03200
C1269       C  0.33488642  0.44083259  0.40995378    -0.22100
C1270       C  0.33489164  0.45171671  0.43920656     0.12400
S1271       S  0.34919329  0.46742758  0.49160260    -0.05800
C1272       C  0.32527496  0.47248758  0.48085507    -0.09200
C1273       C  0.31955310  0.46293282  0.45253076    -0.25800
S1274       S  0.35573331  0.41698364  0.36566121    -0.03000
C1275       C  0.37958876  0.41222765  0.37727500    -0.16500
C1276       C  0.38453778  0.42104675  0.40631714    -0.14500
H1277       H  0.38204749  0.44331127  0.46300134     0.20900
H1278       H  0.32190436  0.44028814  0.39520518     0.16900
H1279       H  0.30523954  0.46477567  0.44176255     0.19400
H1280       H  0.39882385  0.41971617  0.41736041     0.12800
C1281       C  0.50140949  0.65627385  0.69332243     0.16700
C1282       C  0.52074775  0.66121883  0.70187205    -0.32400
C1283       C  0.53567908  0.64874629  0.68814049     0.21100
C1284       C  0.53158308  0.63253361  0.66615504     0.03200
C1285       C  0.51227549  0.62791026  0.65711628    -0.22100
C1286       C  0.49731868  0.63993651  0.67151414     0.12400
S1287       S  0.48121292  0.66750261  0.71037932    -0.05800
C1288       C  0.46717544  0.64957672  0.68855810    -0.09200
C1289       C  0.47763973  0.63621548  0.66836835    -0.25800
S1290       S  0.55163535  0.61854163  0.65331592    -0.03000
C1291       C  0.56568555  0.63453353  0.67802581    -0.16500
C1292       C  0.55526495  0.64996353  0.69508337    -0.14500
H1293       H  0.52396088  0.67357852  0.71947509     0.20900
H1294       H  0.50901259  0.61487814  0.64057716     0.16900
H1295       H  0.47128836  0.62347231  0.65377936     0.19400
H1296       H  0.56163610  0.66118698  0.71205074     0.12800
C1297       C  0.39339972  0.74267432  0.68408333     0.16700
C1298       C  0.39480009  0.76321010  0.66918624    -0.32400
C1299       C  0.39371974  0.78198594  0.68815872     0.21100
C1300       C  0.39085021  0.78041990  0.72049405     0.03200
C1301       C  0.38948716  0.75982055  0.73545573    -0.22100
C1302       C  0.39104691  0.74097753  0.71652829     0.12400
S1303       S  0.39570546  0.71812411  0.66526878    -0.05800
C1304       C  0.39399811  0.70524505  0.70145402    -0.09200
C1305       C  0.39139007  0.71945492  0.72670941    -0.25800
S1306       S  0.39054309  0.80520419  0.73937447    -0.03000
C1307       C  0.39492493  0.81773846  0.70349823    -0.16500
C1308       C  0.39615418  0.80331799  0.67829312    -0.14500
H1309       H  0.39719436  0.76447786  0.64397241     0.20900
H1310       H  0.38781970  0.75854593  0.76082329     0.16900
H1311       H  0.39059432  0.71439505  0.75122312     0.19400
H1312       H  0.39936968  0.80811826  0.65420810     0.12800
C1313       C  0.34426303  0.58296090  0.62943713     0.16700
C1314       C  0.32775100  0.57074686  0.62011318    -0.32400
C1315       C  0.32910781  0.55828703  0.59228432     0.21100
C1316       C  0.34612202  0.55818925  0.57456652     0.03200
C1317       C  0.36238938  0.57071902  0.58345894    -0.22100
C1318       C  0.36109329  0.58294364  0.61130469     0.12400
S1319       S  0.34627269  0.59794585  0.66350101    -0.05800
C1320       C  0.37004560  0.60403480  0.65313276    -0.09200
C1321       C  0.37581110  0.59511310  0.62459148    -0.25800
S1322       S  0.34557890  0.54104392  0.54294649    -0.03000
C1323       C  0.32204995  0.53391339  0.55322716    -0.16500
C1324       C  0.31506226  0.54450379  0.57988585    -0.14500
H1325       H  0.31463137  0.57051981  0.63432680     0.20900
H1326       H  0.37570772  0.57045323  0.56971649     0.16900
H1327       H  0.39024872  0.59693168  0.61448476     0.19400
H1328       H  0.30081356  0.54170485  0.59020029     0.12800
C1329       C  0.35803938  0.48540656  0.00313058     0.16700
C1330       C  0.33895304  0.47742143  0.00759498    -0.32400
C1331       C  0.32323579  0.49117363  0.99916038     0.21100
C1332       C  0.32636201  0.51185901  0.98643876     0.03200
C1333       C  0.34545538  0.52001013  0.98256771    -0.22100
C1334       C  0.36117708  0.50636106  0.99141597     0.12400
S1335       S  0.37905986  0.47118504  0.01144486    -0.05800
C1336       C  0.39240432  0.49402952  0.00025777    -0.09200
C1337       C  0.38077555  0.51144849  0.98996550    -0.25800
S1338       S  0.30530945  0.52567938  0.97679316    -0.03000
C1339       C  0.29208324  0.50359356  0.99079999    -0.16500
C1340       C  0.30364285  0.48643938  0.00200432    -0.14500
H1341       H  0.33645920  0.46117901  0.01722495     0.20900
H1342       H  0.34795080  0.53629198  0.97308097     0.16900
H1343       H  0.38640020  0.52716044  0.98215551     0.19400
H1344       H  0.29799887  0.47124626  0.01169403     0.12800
C1345       C  0.44554513  0.44118146  0.21103824     0.16700
C1346       C  0.45072838  0.45990635  0.19348067    -0.32400
C1347       C  0.45642356  0.45692221  0.16193240     0.21100
C1348       C  0.45729131  0.43614363  0.14873623     0.03200
C1349       C  0.45221192  0.41744345  0.16633359    -0.22100
C1350       C  0.44608865  0.42047052  0.19760532     0.12400
S1351       S  0.43769364  0.44135655  0.24930545    -0.05800
C1352       C  0.43464619  0.41330517  0.24697924    -0.09200
C1353       C  0.43977553  0.40440439  0.21806832    -0.25800
S1354       S  0.46328420  0.43596214  0.10964482    -0.03000
C1355       C  0.46428067  0.46416986  0.11073862    -0.16500
C1356       C  0.46050719  0.47314301  0.14020626    -0.14500
H1357       H  0.44989662  0.47613050  0.20373438     0.20900
H1358       H  0.45248677  0.40128108  0.15579862     0.16900
H1359       H  0.43905722  0.38710642  0.21240579     0.19400
H1360       H  0.45959697  0.49056601  0.14489970     0.12800
C1361       C  0.45828273  0.56211816  0.86251113     0.16700
C1362       C  0.45680738  0.56695474  0.83004746    -0.32400
C1363       C  0.44230441  0.58196751  0.82029831     0.21100
C1364       C  0.43003995  0.59192187  0.84193246     0.03200
C1365       C  0.43169746  0.58731575  0.87429460    -0.22100
C1366       C  0.44598851  0.57217514  0.88399471     0.12400
S1367       S  0.47332509  0.54262684  0.87901365    -0.05800
C1368       C  0.46271917  0.54794383  0.91507993    -0.09200
C1369       C  0.44862536  0.56432071  0.91410831    -0.25800
S1370       S  0.41332713  0.60954410  0.82560412    -0.03000
C1371       C  0.42287183  0.60355325  0.78910498    -0.16500
C1372       C  0.43822169  0.58856470  0.78985329    -0.14500
H1373       H  0.46618060  0.55894541  0.81307440     0.20900
H1374       H  0.42194759  0.59485350  0.89116037     0.16900
H1375       H  0.43965454  0.56893582  0.93402342     0.19400
H1376       H  0.44622126  0.58314357  0.76928966     0.12800
C1377       C  0.69576190  0.49525497  0.02879812     0.16700
C1378       C  0.71449703  0.48626708  0.03265881    -0.32400
C1379       C  0.73056795  0.49967674  0.02558250     0.21100
C1380       C  0.72810761  0.52101146  0.01475742     0.03200
C1381       C  0.70936696  0.53013406  0.01144002    -0.22100
C1382       C  0.69329380  0.51679513  0.01891967     0.12400
S1383       S  0.67443024  0.48131654  0.03461116    -0.05800
C1384       C  0.66190753  0.50491095  0.02431315    -0.09200
C1385       C  0.67392773  0.52253688  0.01678500    -0.25800
S1386       S  0.74945033  0.53419802  0.00597560    -0.03000
C1387       C  0.76184664  0.51088044  0.01773932    -0.16500
C1388       C  0.74990361  0.49384201  0.02764377    -0.14500
H1389       H  0.71645742  0.46947618  0.04051994     0.20900
H1390       H  0.70739376  0.54681582  0.00311184     0.16900
H1391       H  0.66872141  0.53852276  0.00929392     0.19400
H1392       H  0.75507395  0.47789148  0.03535472     0.12800
C1393       C  0.60006045  0.42590143  0.13851607     0.16700
C1394       C  0.61002653  0.40962129  0.15583075    -0.32400
C1395       C  0.61038325  0.41142266  0.18891580     0.21100
C1396       C  0.60078825  0.42839126  0.20410624     0.03200
C1397       C  0.59073195  0.44460303  0.18681993    -0.22100
C1398       C  0.59074940  0.44306511  0.15370962     0.12400
S1399       S  0.59999662  0.42808039  0.09822584    -0.05800
C1400       C  0.58767435  0.45262020  0.10179633    -0.09200
C1401       C  0.58349546  0.45836648  0.13274730    -0.25800
S1402       S  0.60280996  0.42760131  0.24434825    -0.03000
C1403       C  0.61700799  0.40434481  0.24077715    -0.16500
C1404       C  0.61986000  0.39764796  0.20983651    -0.14500
H1405       H  0.61770081  0.39650331  0.14396964     0.20900
H1406       H  0.58364343  0.45815009  0.19864407     0.16900
H1407       H  0.57707631  0.47386599  0.13961281     0.19400
H1408       H  0.62812166  0.38327543  0.20305487     0.12800
C1409       C  0.60968503  0.55964104  0.80714938     0.16700
C1410       C  0.60325269  0.54214725  0.82618605    -0.32400
C1411       C  0.60083913  0.54616432  0.85863403     0.21100
C1412       C  0.60465367  0.56667207  0.87140955     0.03200
C1413       C  0.61116069  0.58402746  0.85247617    -0.22100
C1414       C  0.61362625  0.58001270  0.82021941     0.12400
S1415       S  0.61292761  0.55860854  0.76710504    -0.05800
C1416       C  0.61974119  0.58585291  0.76829319    -0.09200
C1417       C  0.61953569  0.59501729  0.79813949    -0.25800
S1418       S  0.60146588  0.56828912  0.91121965    -0.03000
C1419       C  0.59489778  0.54104551  0.91092832    -0.16500
C1420       C  0.59522340  0.53127957  0.88134519    -0.14500
H1421       H  0.60024265  0.52616559  0.81617090     0.20900
H1422       H  0.61422835  0.59999726  0.86249824     0.16900
H1423       H  0.62288283  0.61201430  0.80327159     0.19400
H1424       H  0.59225683  0.51409812  0.87699543     0.12800
loop_ 
_geom_bond_atom_site_label_1 
_geom_bond_atom_site_label_2 
_geom_bond_distance 
_geom_bond_site_symmetry_2 
_ccdc_geom_bond_type 
N1            C6   1.356       .  A
N1            C5   1.358       .  A
N1           H33   1.043       .  S
N2            C9   1.348       .  A
N2           C10   1.351       .  A
N3            C8   1.352       .  A
N3            C7   1.358       .  A
N3           H34   1.039   1_556  S
N4           C11   1.362       .  A
N4           C12   1.357       .  A
C5           C13   1.385       .  A
C5           C21   1.416       .  A
C6           C22   1.425       .  A
C6           C14   1.389       .  A
C7           C15   1.387       .  A
C7           C24   1.419   1_556  A
C8           C23   1.416       .  A
C8           C16   1.389       .  A
C9           C21   1.409       .  A
C9           C17   1.387       .  A
C10          C24   1.412       .  A
C10          C18   1.386       .  A
C11          C19   1.388       .  A
C11          C22   1.435   1_556  A
C12          C20   1.382       .  A
C12          C23   1.420       .  A
C13          C14   1.381       .  A
C13          H25   1.082       .  S
C14          H26   1.082       .  S
C15          C16   1.370       .  A
C15          H27   1.081       .  S
C16          H28   1.082       .  S
C17          C18   1.372       .  A
C17          H29   1.082       .  S
C18          H30   1.082       .  S
C19          C20   1.373       .  A
C19          H31   1.080       .  S
C20          H32   1.082       .  S
C21        C1400   1.486       .  S
C22          C57   1.559       .  S
C23        C1419   1.484       .  S
C24        C1384   1.493       .  S
N35          C40   1.354       .  A
N35          C39   1.363       .  A
N35          H67   1.031       .  S
N36          C43   1.353       .  A
N36          C44   1.349       .  A
N37          C42   1.358       .  A
N37          C41   1.358       .  A
N37          H68   1.039       .  S
N38          C45   1.357       .  A
N38          C46   1.361       .  A
C39          C47   1.386       .  A
C39          C55   1.423       .  A
C40          C56   1.420       .  A
C40          C48   1.388       .  A
C41          C49   1.385       .  A
C41          C58   1.418       .  A
C42          C57   1.425   1_556  A
C42          C50   1.388       .  A
C43          C55   1.415   1_556  A
C43          C51   1.386       .  A
C44          C58   1.412       .  A
C44          C52   1.387       .  A
C45          C53   1.383       .  A
C45          C56   1.421       .  A
C46          C54   1.389       .  A
C46          C57   1.435       .  A
C47          C48   1.372       .  A
C47          H59   1.081       .  S
C48          H60   1.082       .  S
C49          C50   1.382       .  A
C49          H61   1.082       .  S
C50          H62   1.082       .  S
C51          C52   1.373       .  A
C51          H63   1.082       .  S
C52          H64   1.082       .  S
C53          C54   1.372       .  A
C53          H65   1.082       .  S
C54          H66   1.081       .  S
C55        C1336   1.505       .  S
C56        C1355   1.487       .  S
C58        C1368   1.488       .  S
In69         O71   2.237       .  S
In69         O72   2.279       .  S
In69         O80   2.275       .  S
In69         O74   2.240       .  S
In69         O76   2.246       .  S
In69         O77   2.266       .  S
In69         O78   2.235       .  S
In69         O81   2.251       .  S
C70        C1288   1.467       .  S
C70          O76   1.263       .  A
C70          O78   1.260       .  A
O71          C79   1.259       .  A
O72          C79   1.263       .  A
C73        C1320   1.476       .  S
C73          O80   1.262       .  A
C73          O74   1.259       .  A
C75        C1371   1.477       .  S
C75          O77   1.264       .  A
C75          O81   1.258       .  A
C79        C1304   1.478       .  S
In82         O84   2.243       .  S
In82         O85   2.264       .  S
In82         O93   2.259       .  S
In82         O87   2.229       .  S
In82         O89   2.252       .  S
In82         O90   2.274       .  S
In82         O91   2.246       .  S
In82         O94   2.245       .  S
C83        C1240   1.470       .  S
C83          O89   1.260       .  A
C83          O91   1.259       .  A
O84          C92   1.261       .  A
O85          C92   1.265       .  A
C86        C1275   1.471       .  S
C86          O93   1.263       .  A
C86          O87   1.261       .  A
C88        C1352   1.477       .  S
C88          O90   1.263       .  A
C88          O94   1.257       .  A
C92        C1256   1.477       .  S
C95          N96   1.366       .  A
C95         N100   1.364       .  A
C95        C1224   1.481       .  S
N96          C97   1.362       .  A
C97          N98   1.354       .  A
C97        C1323   1.475       .  S
N98          C99   1.353       .  A
C99         N100   1.359       .  A
C99        C1272   1.473       .  S
In101       O103   2.281       .  S
In101       O104   2.251       .  S
In101       O112   2.273       .  S
In101       O106   2.256       .  S
In101       O108   2.281       .  S
In101       O109   2.256       .  S
In101       O110   2.218       .  S
In101       O113   2.254       .  S
C102       C1176   1.470       .  S
C102        O108   1.264       .  A
C102        O110   1.256       .  A
O103        C111   1.261       .  A
O104        C111   1.260       .  A
C105       C1192   1.480       .  S
C105        O112   1.261       .  A
C105        O106   1.261       .  A
C107       C1307   1.477       .  S
C107        O109   1.263       .  A
C107        O113   1.262       .  A
C111       C1208   1.481       .  S
In114       O116   2.274       .  S
In114       O117   2.252       .  S
In114       O125   2.280       .  S
In114       O119   2.235       .  S
In114       O121   2.243       .  S
In114       O122   2.256       .  S
In114       O123   2.246       .  S
In114       O126   2.253       .  S
C115       C1128   1.467       .  S
C115        O121   1.260       .  A
C115        O123   1.260       .  A
O116        C124   1.262       .  A
O117        C124   1.257       .  A
C118       C1144   1.478       .  S
C118        O125   1.262       .  A
C118        O119   1.259       .  A
C120       C1259   1.477       .  S
C120        O122   1.264       .  A
C120        O126   1.262       .  A
C124       C1163   1.477       .  S
C127        N128   1.365   1_545  A
C127        N132   1.366       .  A
C127       C1115   1.478       .  S
N128        C129   1.360       .  A
C129        N130   1.355   1_565  A
C129       C1195   1.477       .  S
N130        C131   1.355       .  A
C131        N132   1.362       .  A
C131       C1147   1.482       .  S
N133        C138   1.352       .  A
N133        C137   1.360       .  A
N133        H165   1.040   1_556  S
N134        C141   1.356       .  A
N134        C142   1.350       .  A
N135        C140   1.361       .  A
N135        C139   1.357       .  A
N135        H166   1.042       .  S
N136        C143   1.356       .  A
N136        C144   1.358       .  A
C137        C145   1.387       .  A
C137        C153   1.421   1_556  A
C138        C154   1.417       .  A
C138        C146   1.388       .  A
C139        C147   1.385       .  A
C139        C156   1.418       .  A
C140        C155   1.429   1_545  A
C140        C148   1.388       .  A
C141        C153   1.418   1_545  A
C141        C149   1.386       .  A
C142        C156   1.416       .  A
C142        C150   1.388       .  A
C143        C151   1.385       .  A
C143        C154   1.418       .  A
C144        C152   1.387       .  A
C144        C155   1.426   1_556  A
C145        C146   1.374       .  A
C145        H157   1.082       .  S
C146        H158   1.082       .  S
C147        C148   1.376       .  A
C147        H159   1.082       .  S
C148        H160   1.082   1_545  S
C149        C150   1.370       .  A
C149        H161   1.081       .  S
C150        H162   1.082       .  S
C151        C152   1.378       .  A
C151        H163   1.082       .  S
C152        H164   1.082       .  S
C153       C1067   1.503   1_565  S
C154       C1099   1.487       .  S
C155        C189   1.559       .  S
C156       C1083   1.483       .  S
N167        C172   1.350       .  A
N167        C171   1.360       .  A
N167        H199   1.039   1_556  S
N168        C175   1.353       .  A
N168        C176   1.346       .  A
N169        C174   1.358       .  A
N169        C173   1.358       .  A
N169        H200   1.043   1_545  S
N170        C177   1.358       .  A
N170        C178   1.363       .  A
C171        C179   1.385       .  A
C171        C187   1.417   1_566  A
C172        C188   1.416       .  A
C172        C180   1.389       .  A
C173        C181   1.384       .  A
C173        C190   1.416       .  A
C174        C189   1.427   1_545  A
C174        C182   1.388       .  A
C175        C187   1.414       .  A
C175        C183   1.386       .  A
C176        C190   1.409       .  A
C176        C184   1.387       .  A
C177        C185   1.382       .  A
C177        C188   1.423       .  A
C178        C186   1.389       .  A
C178        C189   1.437   1_556  A
C179        C180   1.372       .  A
C179        H191   1.082   1_565  S
C180        H192   1.082       .  S
C181        C182   1.378       .  A
C181        H193   1.082       .  S
C182        H194   1.082       .  S
C183        C184   1.374       .  A
C183        H195   1.081       .  S
C184        H196   1.082       .  S
C185        C186   1.374       .  A
C185        H197   1.082       .  S
C186        H198   1.080       .  S
C187       C1051   1.501       .  S
C188       C1211   1.490       .  S
C190       C1160   1.480       .  S
In201       O203   2.259       .  S
In201       O204   2.257       .  S
In201       O212   2.288       .  S
In201       O206   2.256       .  S
In201       O208   2.261       .  S
In201       O209   2.269       .  S
In201       O210   2.250       .  S
In201       O213   2.255       .  S
C202       C1179   1.473       .  S
C202        O208   1.260       .  A
C202        O210   1.260       .  A
O203        C211   1.262       .  A
O204        C211   1.259       .  A
C205       C1032   1.482       .  S
C205        O212   1.260       .  A
C205        O206   1.258       .  A
C207       C1096   1.476       .  S
C207        O209   1.259       .  A
C207        O213   1.258       .  A
C211       C1019   1.475       .  S
In214       O216   2.242       .  S
In214       O217   2.257       .  S
In214       O225   2.262       .  S
In214       O219   2.250       .  S
In214       O221   2.272       .  S
In214       O222   2.257       .  S
In214       O223   2.242       .  S
In214       O226   2.248       .  S
C215       C1131   1.472       .  S
C215        O221   1.260       .  A
C215        O223   1.257       .  A
O216        C224   1.263       .  A
O217        C224   1.263       .  A
C218       C1003   1.477       .  S
C218        O225   1.261       .  A
C218        O219   1.262       .  A
C220       C1080   1.470       .  S
C220        O222   1.260       .  A
C220        O226   1.257       .  A
C224        C984   1.476       .  S
C227        N228   1.368   1_565  A
C227        N232   1.366       .  A
C227        C968   1.478       .  S
N228        C229   1.363       .  A
C229        N230   1.355       .  A
C229       C1000   1.482       .  S
N230        C231   1.354   1_545  A
C231        N232   1.360       .  A
C231       C1035   1.481       .  S
In233       O235   2.256       .  S
In233       O236   2.244       .  S
In233       O244   2.263       .  S
In233       O238   2.246       .  S
In233       O240   2.256       .  S
In233       O241   2.263       .  S
In233       O242   2.254       .  S
In233       O245   2.234       .  S
C234       C1291   1.470       .  S
C234        O240   1.259       .  A
C234        O242   1.257       .  A
O235        C243   1.258       .  A
O236        C243   1.259       .  A
C237        C955   1.476       .  S
C237        O244   1.263       .  A
C237        O238   1.260       .  A
C239       C1016   1.472       .  S
C239        O241   1.262       .  A
C239        O245   1.261       .  A
C243       C1416   1.470       .  S
In246       O248   2.244       .  S
In246       O249   2.283       .  S
In246       O257   2.285       .  S
In246       O251   2.228       .  S
In246       O253   2.245       .  S
In246       O254   2.273       .  S
In246       O255   2.248       .  S
In246       O258   2.239       .  S
C247       C1243   1.469       .  S
C247        O253   1.261       .  A
C247        O255   1.261       .  A
O248        C256   1.256       .  A
O249        C256   1.264       .  A
C250        C936   1.474       .  S
C250        O257   1.263       .  A
C250        O251   1.257       .  A
C252        C987   1.477       .  S
C252        O254   1.264       .  A
C252        O258   1.260       .  A
C256       C1403   1.478       .  S
C259        N260   1.363       .  A
C259        N264   1.361       .  A
C259        C920   1.477       .  S
N260        C261   1.360       .  A
C261        N262   1.358       .  A
C261        C952   1.480       .  S
N262        C263   1.359       .  A
C263        N264   1.359       .  A
C263        C939   1.478       .  S
N265        C270   1.351       .  A
N265        C269   1.361       .  A
N265        H297   1.041       .  S
N266        C273   1.349       .  A
N266        C274   1.345       .  A
N267        C272   1.352       .  A
N267        C271   1.354       .  A
N267        H298   1.044       .  S
N268        C275   1.357       .  A
N268        C276   1.363       .  A
C269        C277   1.385       .  A
C269        C285   1.418       .  A
C270        C286   1.417       .  A
C270        C278   1.389       .  A
C271        C279   1.385       .  A
C271        C288   1.410       .  A
C272        C287   1.416       .  A
C272        C280   1.388       .  A
C273        C285   1.409       .  A
C273        C281   1.386       .  A
C274        C288   1.407       .  A
C274        C282   1.387       .  A
C275        C283   1.383       .  A
C275        C286   1.423       .  A
C276        C284   1.389       .  A
C276        C287   1.437       .  A
C277        C278   1.373       .  A
C277        H289   1.082       .  S
C278        H290   1.082       .  S
C279        C280   1.380       .  A
C279        H291   1.082       .  S
C280        H292   1.082       .  S
C281        C282   1.374       .  A
C281        H293   1.082       .  S
C282        H294   1.082       .  S
C283        C284   1.373       .  A
C283        H295   1.082       .  S
C284        H296   1.080       .  S
C285       C1227   1.497       .  S
C286        C888   1.488       .  S
C287        C319   1.553       .  S
C288        C907   1.478       .  S
N299        C304   1.354       .  A
N299        C303   1.352   1_655  A
N299        H331   1.044       .  S
N300        C307   1.362   1_655  A
N300        C308   1.357       .  A
N301        C306   1.360       .  A
N301        C305   1.350       .  A
N301        H332   1.040       .  S
N302        C309   1.345       .  A
N302        C310   1.349       .  A
C303        C311   1.387       .  A
C303        C319   1.414       .  A
C304        C320   1.410       .  A
C304        C312   1.385       .  A
C305        C313   1.389       .  A
C305        C322   1.416       .  A
C306        C321   1.418       .  A
C306        C314   1.385       .  A
C307        C319   1.435       .  A
C307        C315   1.389       .  A
C308        C322   1.420       .  A
C308        C316   1.383       .  A
C309        C317   1.387       .  A
C309        C320   1.404       .  A
C310        C318   1.386       .  A
C310        C321   1.407       .  A
C311        C312   1.381   1_455  A
C311        H323   1.082       .  S
C312        H324   1.082       .  S
C313        C314   1.373       .  A
C313        H325   1.082       .  S
C314        H326   1.081       .  S
C315        C316   1.373   1_455  A
C315        H327   1.080       .  S
C316        H328   1.082       .  S
C317        C318   1.372       .  A
C317        H329   1.083       .  S
C318        H330   1.082       .  S
C320        C856   1.476       .  S
C321        C923   1.495       .  S
C322        C872   1.483       .  S
In333       O335   2.260       .  S
In333       O336   2.255       .  S
In333       O344   2.250       .  S
In333       O338   2.226       .  S
In333       O340   2.245       .  S
In333       O341   2.247       .  S
In333       O342   2.230       .  S
In333       O345   2.238       .  S
C334        C811   1.459       .  S
C334        O340   1.259       .  A
C334        O342   1.256       .  A
O335        C343   1.257       .  A
O336        C343   1.259       .  A
C337        C840   1.466       .  S
C337        O344   1.264       .  A
C337        O338   1.259       .  A
C339        C824   1.471       .  S
C339        O341   1.263       .  A
C339        O345   1.262       .  A
C343        C875   1.472       .  S
In346       O348   2.228       .  S
In346       O349   2.252       .  S
In346       O357   2.257       .  S
In346       O351   2.249       .  S
In346       O353   2.250       .  S
In346       O354   2.259       .  S
In346       O355   2.237       .  S
In346       O358   2.228       .  S
C347        C760   1.471       .  S
C347        O353   1.267       .  A
C347        O355   1.260       .  A
O348        C356   1.259       .  A
O349        C356   1.266       .  A
C350        C795   1.476       .  S
C350        O357   1.262       .  A
C350        O351   1.264       .  A
C352        C779   1.472       .  S
C352        O354   1.265       .  A
C352        O358   1.260       .  A
C356        C859   1.468       .  S
C359        N360   1.364       .  A
C359        N364   1.359   1_554  A
C359       C1387   1.473       .  S
N360        C361   1.361       .  A
C361        N362   1.357       .  A
C361        C792   1.472       .  S
N362        C363   1.355   1_554  A
C363        N364   1.356       .  A
C363        C843   1.470       .  S
In365       O367   2.227       .  S
In365       O368   2.271       .  S
In365       O376   2.266       .  S
In365       O370   2.225       .  S
In365       O372   2.259       .  S
In365       O373   2.273       .  S
In365       O374   2.241       .  S
In365       O377   2.233       .  S
C366        C712   1.466       .  S
C366        O372   1.258       .  A
C366        O374   1.256       .  A
O367        C375   1.260       .  A
O368        C375   1.266       .  A
C369        C728   1.472       .  S
C369        O376   1.264       .  A
C369        O370   1.260       .  A
C371        C744   1.470       .  S
C371        O373   1.261       .  A
C371        O377   1.256       .  A
C375        C827   1.475       .  S
In378       O380   2.247       .  S
In378       O381   2.250       .  S
In378       O389   2.248       .  S
In378       O383   2.252       .  S
In378       O385   2.248       .  S
In378       O386   2.244       .  S
In378       O387   2.232       .  S
In378       O390   2.266       .  S
C379        C664   1.462       .  S
C379        O385   1.259       .  A
C379        O387   1.258       .  A
O380        C388   1.262       .  A
O381        C388   1.262       .  A
C382        C683   1.473       .  S
C382        O389   1.261       .  A
C382        O383   1.261       .  A
C384        C696   1.471       .  S
C384        O386   1.257       .  A
C384        O390   1.260       .  A
C388        C776   1.472       .  S
C391        N392   1.369   1_556  A
C391        N396   1.364   1_545  A
C391       C1064   1.484       .  S
N392        C393   1.366       .  A
C393        N394   1.354   1_554  A
C393        C680   1.479       .  S
N394        C395   1.352   1_545  A
C395        N396   1.359       .  A
C395        C731   1.474       .  S
N397        C402   1.360       .  A
N397        C401   1.353       .  A
N397        H429   1.036       .  S
N398        C405   1.354       .  A
N398        C406   1.357       .  A
N399        C404   1.357       .  A
N399        C403   1.356   1_565  A
N399        H430   1.043       .  S
N400        C407   1.353       .  A
N400        C408   1.349       .  A
C401        C409   1.388       .  A
C401        C417   1.417       .  A
C402        C418   1.421   1_545  A
C402        C410   1.387       .  A
C403        C411   1.386       .  A
C403        C420   1.418       .  A
C404        C419   1.415       .  A
C404        C412   1.386       .  A
C405        C417   1.416       .  A
C405        C413   1.384       .  A
C406        C420   1.425       .  A
C406        C414   1.388       .  A
C407        C415   1.385       .  A
C407        C418   1.416       .  A
C408        C416   1.388       .  A
C408        C419   1.416       .  A
C409        C410   1.372       .  A
C409        H421   1.082       .  S
C410        H422   1.082       .  S
C411        C412   1.376   1_545  A
C411        H423   1.082       .  S
C412        H424   1.082       .  S
C413        C414   1.375       .  A
C413        H425   1.082       .  S
C414        H426   1.081       .  S
C415        C416   1.371       .  A
C415        H427   1.080       .  S
C416        H428   1.082       .  S
C417        C632   1.483       .  S
C418       C1112   1.496       .  S
C419        C648   1.485       .  S
C420        C453   1.547       .  S
N431        C436   1.351       .  A
N431        C435   1.359       .  A
N431        H463   1.038       .  S
N432        C439   1.352       .  A
N432        C440   1.348       .  A
N433        C438   1.356   1_655  A
N433        C437   1.355       .  A
N433        H464   1.044       .  S
N434        C441   1.354       .  A
N434        C442   1.358   1_655  A
C435        C443   1.387       .  A
C435        C451   1.420   1_565  A
C436        C452   1.415       .  A
C436        C444   1.387       .  A
C437        C445   1.387       .  A
C437        C454   1.414       .  A
C438        C453   1.419       .  A
C438        C446   1.386       .  A
C439        C451   1.416       .  A
C439        C447   1.387       .  A
C440        C454   1.409       .  A
C440        C448   1.386       .  A
C441        C449   1.382       .  A
C441        C452   1.414       .  A
C442        C450   1.389       .  A
C442        C453   1.430   1_565  A
C443        C444   1.369       .  A
C443        H455   1.081       .  S
C444        H456   1.081       .  S
C445        C446   1.378   1_655  A
C445        H457   1.082       .  S
C446        H458   1.082       .  S
C447        C448   1.375       .  A
C447        H459   1.082       .  S
C448        H460   1.082       .  S
C449        C450   1.371   1_655  A
C449        H461   1.082       .  S
C450        H462   1.081       .  S
C451        C971   1.499       .  S
C452        C747   1.479       .  S
C454        C699   1.477       .  S
In465       O467   2.251       .  S
In465       O468   2.259       .  S
In465       O476   2.277       .  S
In465       O470   2.248       .  S
In465       O472   2.238       .  S
In465       O473   2.261       .  S
In465       O474   2.235       .  S
In465       O477   2.256       .  S
C466        C808   1.462       .  S
C466        O472   1.261       .  A
C466        O474   1.261       .  A
O467        C475   1.259       .  A
O468        C475   1.260       .  A
C469        C616   1.477       .  S
C469        O476   1.261       .  A
C469        O470   1.257       .  A
C471        C904   1.473       .  S
C471        O473   1.261       .  A
C471        O477   1.258       .  A
C475        C603   1.473       .  S
In478       O480   2.258       .  S
In478       O481   2.256       .  S
In478       O489   2.291       .  S
In478       O483   2.243       .  S
In478       O485   2.252       .  S
In478       O486   2.258       .  S
In478       O487   2.259       .  S
In478       O490   2.255       .  S
C479        C763   1.472       .  S
C479        O485   1.260       .  A
C479        O487   1.259       .  A
O480        C488   1.261       .  A
O481        C488   1.260       .  A
C482        C587   1.479       .  S
C482        O489   1.262       .  A
C482        O483   1.257       .  A
C484        C891   1.473       .  S
C484        O486   1.259       .  A
C484        O490   1.258       .  A
C488        C571   1.476       .  S
C491        N492   1.366       .  A
C491        N496   1.363   1_556  A
C491       C1339   1.485       .  S
N492        C493   1.364       .  A
C493        N494   1.358       .  A
C493        C619   1.482       .  S
N494        C495   1.357   1_556  A
C495        N496   1.359       .  A
C495        C584   1.480       .  S
In497       O499   2.282       .  S
In497       O500   2.246       .  S
In497       O508   2.273       .  S
In497       O502   2.246       .  S
In497       O504   2.245       .  S
In497       O505   2.271       .  S
In497       O506   2.245       .  S
In497       O509   2.231       .  S
C498        C715   1.468       .  S
C498        O504   1.261       .  A
C498        O506   1.260       .  A
O499        C507   1.261       .  A
O500        C507   1.255       .  A
C501        C552   1.477       .  S
C501        O508   1.263       .  A
C501        O502   1.260       .  A
C503        C600   1.474       .  S
C503        O505   1.263       .  A
C503        O509   1.259       .  A
C507        C651   1.475       .  S
In510       O512   2.239       .  S
In510       O513   2.283       .  S
In510       O521   2.285       .  S
In510       O515   2.234       .  S
In510       O517   2.244       .  S
In510       O518   2.266       .  S
In510       O519   2.237       .  S
In510       O522   2.245       .  S
C511        C667   1.461       .  S
C511        O517   1.259       .  A
C511        O519   1.259       .  A
O512        C520   1.255       .  A
O513        C520   1.261       .  A
C514        C536   1.478       .  S
C514        O521   1.263       .  A
C514        O515   1.257       .  A
C516        C568   1.477       .  S
C516        O518   1.264       .  A
C516        O522   1.261       .  A
C520        C635   1.474       .  S
C523        N524   1.364   1_554  A
C523        N528   1.371   1_565  A
C523       C1048   1.486       .  S
N524        C525   1.358       .  A
C525        N526   1.353   1_556  A
C525        C555   1.479       .  S
N526        C527   1.355   1_565  A
C527        N528   1.366       .  A
C527        C539   1.485       .  S
C529        C534   1.386       .  A
C529        C530   1.411       .  A
C529        S535   1.718       .  A
C530        C531   1.410       .  A
C530        H541   1.082       .  S
C531        C540   1.384       .  A
C531        C532   1.387       .  A
C532        C533   1.400       .  A
C532        S538   1.699       .  A
C533        C534   1.399       .  A
C533        H542   1.083       .  S
C534        C537   1.370       .  A
S535        C536   1.726       .  A
C536        C537   1.386       .  A
C537        H543   1.083       .  S
S538        C539   1.726       .  A
C539        C540   1.393       .  A
C540        H544   1.083       .  S
C545        C550   1.387       .  A
C545        C546   1.400       .  A
C545        S551   1.706       .  A
C546        C547   1.401       .  A
C546        H557   1.083       .  S
C547        C556   1.368       .  A
C547        C548   1.386       .  A
C548        C549   1.406       .  A
C548        S554   1.715       .  A
C549        C550   1.408       .  A
C549        H558   1.083       .  S
C550        C553   1.377       .  A
S551        C552   1.723       .  A
C552        C553   1.390       .  A
C553        H559   1.083       .  S
S554        C555   1.726       .  A
C555        C556   1.388       .  A
C556        H560   1.083       .  S
C561        C566   1.387       .  A
C561        C562   1.403       .  A
C561        S567   1.707       .  A
C562        C563   1.403       .  A
C562        H573   1.083       .  S
C563        C572   1.373       .  A
C563        C564   1.387       .  A
C564        C565   1.406       .  A
C564        S570   1.711       .  A
C565        C566   1.406       .  A
C565        H574   1.083       .  S
C566        C569   1.377       .  A
S567        C568   1.723       .  A
C568        C569   1.389       .  A
C569        H575   1.083       .  S
S570        C571   1.725       .  A
C571        C572   1.386       .  A
C572        H576   1.083       .  S
C577        C582   1.386       .  A
C577        C578   1.409       .  A
C577        S583   1.715       .  A
C578        C579   1.409       .  A
C578        H589   1.083       .  S
C579        C588   1.381       .  A
C579        C580   1.387       .  A
C580        C581   1.401       .  A
C580        S586   1.704       .  A
C581        C582   1.401       .  A
C581        H590   1.083       .  S
C582        C585   1.371       .  A
S583        C584   1.727       .  A
C584        C585   1.388       .  A
C585        H591   1.083       .  S
S586        C587   1.722       .  A
C587        C588   1.391       .  A
C588        H592   1.083       .  S
C593        C598   1.386       .  A
C593        C594   1.405       .  A
C593        S599   1.714       .  A
C594        C595   1.406       .  A
C594        H605   1.083       .  S
C595        C604   1.374       .  A
C595        C596   1.387       .  A
C596        C597   1.400       .  A
C596        S602   1.707       .  A
C597        C598   1.402       .  A
C597        H606   1.083       .  S
C598        C601   1.368       .  A
S599        C600   1.725       .  A
C600        C601   1.386       .  A
C601        H607   1.083       .  S
S602        C603   1.722       .  A
C603        C604   1.388       .  A
C604        H608   1.083       .  S
C609        C614   1.386       .  A
C609        C610   1.408       .  A
C609        S615   1.715       .  A
C610        C611   1.409       .  A
C610        H621   1.083       .  S
C611        C620   1.380       .  A
C611        C612   1.387       .  A
C612        C613   1.401       .  A
C612        S618   1.704       .  A
C613        C614   1.401       .  A
C613        H622   1.083       .  S
C614        C617   1.371       .  A
S615        C616   1.726       .  A
C616        C617   1.386       .  A
C617        H623   1.083       .  S
S618        C619   1.724       .  A
C619        C620   1.391       .  A
C620        H624   1.083       .  S
C625        C630   1.387       .  A
C625        C626   1.406       .  A
C625        S631   1.710       .  A
C626        C627   1.406       .  A
C626        H637   1.083       .  S
C627        C636   1.377       .  A
C627        C628   1.387       .  A
C628        C629   1.400       .  A
C628        S634   1.703       .  A
C629        C630   1.400       .  A
C629        H638   1.083       .  S
C630        C633   1.370       .  A
S631        C632   1.725       .  A
C632        C633   1.383       .  A
C633        H639   1.083       .  S
S634        C635   1.722       .  A
C635        C636   1.389       .  A
C636        H640   1.083       .  S
C641        C646   1.387       .  A
C641        C642   1.403       .  A
C641        S647   1.712       .  A
C642        C643   1.405       .  A
C642        H653   1.083       .  S
C643        C652   1.371       .  A
C643        C644   1.386       .  A
C644        C645   1.402       .  A
C644        S650   1.712       .  A
C645        C646   1.403       .  A
C645        H654   1.083       .  S
C646        C649   1.369       .  A
S647        C648   1.723       .  A
C648        C649   1.387       .  A
C649        H655   1.083       .  S
S650        C651   1.722       .  A
C651        C652   1.389       .  A
C652        H656   1.083       .  S
C657        C662   1.387       .  A
C657        C658   1.401       .  A
C657        S663   1.707   1_455  A
C658        C659   1.402       .  A
C658        H669   1.083       .  S
C659        C668   1.368       .  A
C659        C660   1.388       .  A
C660        C661   1.397       .  A
C660        S666   1.702       .  A
C661        C662   1.398       .  A
C661        H670   1.083       .  S
C662        C665   1.364   1_455  A
S663        C664   1.721       .  A
C664        C665   1.382       .  A
C665        H671   1.083       .  S
S666        C667   1.718       .  A
C667        C668   1.385       .  A
C668        H672   1.083       .  S
C673        C678   1.387       .  A
C673        C674   1.402       .  A
C673        S679   1.701       .  A
C674        C675   1.401       .  A
C674        H685   1.083       .  S
C675        C684   1.373       .  A
C675        C676   1.387       .  A
C676        C677   1.406       .  A
C676        S682   1.709       .  A
C677        C678   1.405       .  A
C677        H686   1.083       .  S
C678        C681   1.380       .  A
S679        C680   1.726       .  A
C680        C681   1.389       .  A
C681        H687   1.083       .  S
S682        C683   1.723       .  A
C683        C684   1.387       .  A
C684        H688   1.083       .  S
C689        C694   1.387       .  A
C689        C690   1.403       .  A
C689        S695   1.707       .  A
C690        C691   1.403       .  A
C690        H701   1.083       .  S
C691        C700   1.373       .  A
C691        C692   1.388       .  A
C692        C693   1.401       .  A
C692        S698   1.705       .  A
C693        C694   1.401       .  A
C693        H702   1.083       .  S
C694        C697   1.372       .  A
S695        C696   1.723       .  A
C696        C697   1.385       .  A
C697        H703   1.083       .  S
S698        C699   1.719       .  A
C699        C700   1.385       .  A
C700        H704   1.083       .  S
C705        C710   1.387       .  A
C705        C706   1.400       .  A
C705        S711   1.704   1_455  A
C706        C707   1.401       .  A
C706        H717   1.083       .  S
C707        C716   1.370       .  A
C707        C708   1.387       .  A
C708        C709   1.402       .  A
C708        S714   1.706       .  A
C709        C710   1.402       .  A
C709        H718   1.083       .  S
C710        C713   1.371   1_455  A
S711        C712   1.720       .  A
C712        C713   1.386       .  A
C713        H719   1.083       .  S
S714        C715   1.721       .  A
C715        C716   1.386       .  A
C716        H720   1.083       .  S
C721        C726   1.386       .  A
C721        C722   1.405       .  A
C721        S727   1.714       .  A
C722        C723   1.406       .  A
C722        H733   1.083       .  S
C723        C732   1.376       .  A
C723        C724   1.387       .  A
C724        C725   1.399       .  A
C724        S730   1.703       .  A
C725        C726   1.400       .  A
C725        H734   1.083       .  S
C726        C729   1.367       .  A
S727        C728   1.724       .  A
C728        C729   1.385       .  A
C729        H735   1.083       .  S
S730        C731   1.724       .  A
C731        C732   1.388       .  A
C732        H736   1.083       .  S
C737        C742   1.387       .  A
C737        C738   1.396       .  A
C737        S743   1.701       .  A
C738        C739   1.397       .  A
C738        H749   1.083       .  S
C739        C748   1.363       .  A
C739        C740   1.387       .  A
C740        C741   1.406       .  A
C740        S746   1.715       .  A
C741        C742   1.408       .  A
C741        H750   1.083       .  S
C742        C745   1.375       .  A
S743        C744   1.720       .  A
C744        C745   1.389       .  A
C745        H751   1.083       .  S
S746        C747   1.726       .  A
C747        C748   1.380       .  A
C748        H752   1.083       .  S
C753        C758   1.387       .  A
C753        C754   1.404       .  A
C753        S759   1.710   1_455  A
C754        C755   1.405       .  A
C754        H765   1.083       .  S
C755        C764   1.373       .  A
C755        C756   1.387       .  A
C756        C757   1.400       .  A
C756        S762   1.706       .  A
C757        C758   1.401       .  A
C757        H766   1.083       .  S
C758        C761   1.370   1_455  A
S759        C760   1.725       .  A
C760        C761   1.384       .  A
C761        H767   1.083       .  S
S762        C763   1.721       .  A
C763        C764   1.388       .  A
C764        H768   1.083       .  S
C769        C774   1.387       .  A
C769        C770   1.404       .  A
C769        S775   1.709       .  A
C770        C771   1.404       .  A
C770        H781   1.083       .  S
C771        C780   1.374       .  A
C771        C772   1.387       .  A
C772        C773   1.402       .  A
C772        S778   1.705       .  A
C773        C774   1.402       .  A
C773        H782   1.083       .  S
C774        C777   1.372       .  A
S775        C776   1.723       .  A
C776        C777   1.386       .  A
C777        H783   1.083       .  S
S778        C779   1.723       .  A
C779        C780   1.387       .  A
C780        H784   1.083       .  S
C785        C790   1.387       .  A
C785        C786   1.399       .  A
C785        S791   1.702       .  A
C786        C787   1.399       .  A
C786        H797   1.083       .  S
C787        C796   1.370       .  A
C787        C788   1.387       .  A
C788        C789   1.408       .  A
C788        S794   1.713       .  A
C789        C790   1.408       .  A
C789        H798   1.083       .  S
C790        C793   1.378       .  A
S791        C792   1.721       .  A
C792        C793   1.389       .  A
C793        H799   1.083       .  S
S794        C795   1.727       .  A
C795        C796   1.384       .  A
C796        H800   1.083       .  S
C801        C806   1.388       .  A
C801        C802   1.399       .  A
C801        S807   1.704       .  A
C802        C803   1.400       .  A
C802        H813   1.083       .  S
C803        C812   1.366   1_455  A
C803        C804   1.388       .  A
C804        C805   1.398       .  A
C804        S810   1.702   1_455  A
C805        C806   1.399       .  A
C805        H814   1.083       .  S
C806        C809   1.366       .  A
S807        C808   1.720       .  A
C808        C809   1.384       .  A
C809        H815   1.083       .  S
S810        C811   1.720       .  A
C811        C812   1.383       .  A
C812        H816   1.083       .  S
C817        C822   1.387       .  A
C817        C818   1.405       .  A
C817        S823   1.710       .  A
C818        C819   1.405       .  A
C818        H829   1.083       .  S
C819        C828   1.377       .  A
C819        C820   1.387       .  A
C820        C821   1.401       .  A
C820        S826   1.704       .  A
C821        C822   1.401       .  A
C821        H830   1.083       .  S
C822        C825   1.371       .  A
S823        C824   1.723       .  A
C824        C825   1.386       .  A
C825        H831   1.083       .  S
S826        C827   1.723       .  A
C827        C828   1.389       .  A
C828        H832   1.083       .  S
C833        C838   1.388       .  A
C833        C834   1.400       .  A
C833        S839   1.704       .  A
C834        C835   1.401       .  A
C834        H845   1.083       .  S
C835        C844   1.368       .  A
C835        C836   1.387       .  A
C836        C837   1.401       .  A
C836        S842   1.707       .  A
C837        C838   1.402       .  A
C837        H846   1.083       .  S
C838        C841   1.370       .  A
S839        C840   1.722       .  A
C840        C841   1.384       .  A
C841        H847   1.083       .  S
S842        C843   1.723       .  A
C843        C844   1.386       .  A
C844        H848   1.083       .  S
C849        C854   1.388       .  A
C849        C850   1.399       .  A
C849        S855   1.701       .  A
C850        C851   1.399       .  A
C850        H861   1.083       .  S
C851        C860   1.370       .  A
C851        C852   1.387       .  A
C852        C853   1.403       .  A
C852        S858   1.706       .  A
C853        C854   1.403       .  A
C853        H862   1.083       .  S
C854        C857   1.372       .  A
S855        C856   1.724       .  A
C856        C857   1.385       .  A
C857        H863   1.083       .  S
S858        C859   1.724       .  A
C859        C860   1.383       .  A
C860        H864   1.083       .  S
C865        C870   1.388       .  A
C865        C866   1.401       .  A
C865        S871   1.705       .  A
C866        C867   1.401       .  A
C866        H877   1.083       .  S
C867        C876   1.371       .  A
C867        C868   1.387       .  A
C868        C869   1.405       .  A
C868        S874   1.711       .  A
C869        C870   1.405       .  A
C869        H878   1.083       .  S
C870        C873   1.375       .  A
S871        C872   1.721       .  A
C872        C873   1.387       .  A
C873        H879   1.083       .  S
S874        C875   1.725       .  A
C875        C876   1.385       .  A
C876        H880   1.083       .  S
C881        C886   1.387       .  A
C881        C882   1.403       .  A
C881        S887   1.711       .  A
C882        C883   1.404       .  A
C882        H893   1.083       .  S
C883        C892   1.372       .  A
C883        C884   1.387       .  A
C884        C885   1.404       .  A
C884        S890   1.710       .  A
C885        C886   1.405       .  A
C885        H894   1.083       .  S
C886        C889   1.372       .  A
S887        C888   1.722       .  A
C888        C889   1.389       .  A
C889        H895   1.083       .  S
S890        C891   1.724       .  A
C891        C892   1.387       .  A
C892        H896   1.083       .  S
C897        C902   1.387       .  A
C897        C898   1.401       .  A
C897        S903   1.708       .  A
C898        C899   1.402       .  A
C898        H909   1.083       .  S
C899        C908   1.368       .  A
C899        C900   1.387       .  A
C900        C901   1.402       .  A
C900        S906   1.710       .  A
C901        C902   1.404       .  A
C901        H910   1.083       .  S
C902        C905   1.372       .  A
S903        C904   1.721       .  A
C904        C905   1.388       .  A
C905        H911   1.083       .  S
S906        C907   1.720       .  A
C907        C908   1.386       .  A
C908        H912   1.083       .  S
C913        C918   1.387       .  A
C913        C914   1.403       .  A
C913        S919   1.709       .  A
C914        C915   1.403       .  A
C914        H925   1.083       .  S
C915        C924   1.373       .  A
C915        C916   1.386       .  A
C916        C917   1.404       .  A
C916        S922   1.707       .  A
C917        C918   1.404       .  A
C917        H926   1.083       .  S
C918        C921   1.373       .  A
S919        C920   1.724       .  A
C920        C921   1.389       .  A
C921        H927   1.083       .  S
S922        C923   1.729       .  A
C923        C924   1.388       .  A
C924        H928   1.083       .  S
C929        C934   1.387       .  A
C929        C930   1.397       .  A
C929        S935   1.700       .  A
C930        C931   1.398       .  A
C930        H941   1.083       .  S
C931        C940   1.368       .  A
C931        C932   1.386       .  A
C932        C933   1.409       .  A
C932        S938   1.715       .  A
C933        C934   1.409       .  A
C933        H942   1.083       .  S
C934        C937   1.380       .  A
S935        C936   1.720       .  A
C936        C937   1.391       .  A
C937        H943   1.083       .  S
S938        C939   1.728       .  A
C939        C940   1.385       .  A
C940        H944   1.083       .  S
C945        C950   1.386       .  A
C945        C946   1.405       .  A
C945        S951   1.713       .  A
C946        C947   1.406       .  A
C946        H957   1.083       .  S
C947        C956   1.375       .  A
C947        C948   1.387       .  A
C948        C949   1.403       .  A
C948        S954   1.709       .  A
C949        C950   1.404       .  A
C949        H958   1.083       .  S
C950        C953   1.372       .  A
S951        C952   1.725       .  A
C952        C953   1.389       .  A
C953        H959   1.083       .  S
S954        C955   1.724       .  A
C955        C956   1.388       .  A
C956        H960   1.083       .  S
C961        C966   1.387       .  A
C961        C962   1.405       .  A
C961        S967   1.711       .  A
C962        C963   1.405   1_565  A
C962        H973   1.083       .  S
C963        C972   1.375       .  A
C963        C964   1.385       .  A
C964        C965   1.405       .  A
C964        S970   1.710       .  A
C965        C966   1.405   1_545  A
C965        H974   1.083       .  S
C966        C969   1.376   1_565  A
S967        C968   1.724       .  A
C968        C969   1.388   1_565  A
C969        H975   1.083       .  S
S970        C971   1.728       .  A
C971        C972   1.392       .  A
C972        H976   1.083       .  S
C977        C982   1.386       .  A
C977        C978   1.407       .  A
C977        S983   1.714       .  A
C978        C979   1.408       .  A
C978        H989   1.083       .  S
C979        C988   1.378       .  A
C979        C980   1.387       .  A
C980        C981   1.400       .  A
C980        S986   1.705       .  A
C981        C982   1.401       .  A
C981        H990   1.083       .  S
C982        C985   1.371       .  A
S983        C984   1.726       .  A
C984        C985   1.385       .  A
C985        H991   1.083       .  S
S986        C987   1.722       .  A
C987        C988   1.390       .  A
C988        H992   1.083       .  S
C993        C998   1.387       .  A
C993        C994   1.399       .  A
C993        S999   1.699       .  A
C994        C995   1.398       .  A
C994       H1005   1.083       .  S
C995       C1004   1.370       .  A
C995        C996   1.386       .  A
C996        C997   1.411       .  A
C996       S1002   1.716       .  A
C997        C998   1.410       .  A
C997       H1006   1.083       .  S
C998       C1001   1.383       .  A
S999       C1000   1.724       .  A
C1000      C1001   1.393       .  A
C1001      H1007   1.083       .  S
S1002      C1003   1.728       .  A
C1003      C1004   1.384       .  A
C1004      H1008   1.083       .  S
C1009      C1014   1.387       .  A
C1009      C1010   1.399       .  A
C1009      S1015   1.703       .  A
C1010      C1011   1.400       .  A
C1010      H1021   1.083       .  S
C1011      C1020   1.371       .  A
C1011      C1012   1.387       .  A
C1012      C1013   1.407       .  A
C1012      S1018   1.712       .  A
C1013      C1014   1.408       .  A
C1013      H1022   1.083       .  S
C1014      C1017   1.377       .  A
S1015      C1016   1.720       .  A
C1016      C1017   1.390       .  A
C1017      H1023   1.083       .  S
S1018      C1019   1.727       .  A
C1019      C1020   1.384       .  A
C1020      H1024   1.083       .  S
C1025      C1030   1.386       .  A
C1025      C1026   1.411       .  A
C1025      S1031   1.718       .  A
C1026      C1027   1.411       .  A
C1026      H1037   1.083       .  S
C1027      C1036   1.382       .  A
C1027      C1028   1.387       .  A
C1028      C1029   1.400       .  A
C1028      S1034   1.702       .  A
C1029      C1030   1.400       .  A
C1029      H1038   1.083       .  S
C1030      C1033   1.371       .  A
S1031      C1032   1.729       .  A
C1032      C1033   1.386       .  A
C1033      H1039   1.083       .  S
S1034      C1035   1.724       .  A
C1035      C1036   1.392       .  A
C1036      H1040   1.083       .  S
C1041      C1046   1.386   1_565  A
C1041      C1042   1.408       .  A
C1041      S1047   1.711   1_554  A
C1042      C1043   1.407       .  A
C1042      H1053   1.083   1_554  S
C1043      C1052   1.378       .  A
C1043      C1044   1.386   1_565  A
C1044      C1045   1.405       .  A
C1044      S1050   1.709       .  A
C1045      C1046   1.404       .  A
C1045      H1054   1.083       .  S
C1046      C1049   1.378       .  A
S1047      C1048   1.729   1_556  A
C1048      C1049   1.389   1_565  A
C1049      H1055   1.083       .  S
S1050      C1051   1.728       .  A
C1051      C1052   1.393   1_545  A
C1052      H1056   1.083   1_554  S
C1057      C1062   1.386   1_566  A
C1057      C1058   1.406       .  A
C1057      S1063   1.710       .  A
C1058      C1059   1.406   1_556  A
C1058      H1069   1.083       .  S
C1059      C1068   1.378       .  A
C1059      C1060   1.386   1_565  A
C1060      C1061   1.408       .  A
C1060      S1066   1.713       .  A
C1061      C1062   1.408       .  A
C1061      H1070   1.083       .  S
C1062      C1065   1.381       .  A
S1063      C1064   1.726   1_565  A
C1064      C1065   1.391   1_556  A
C1065      H1071   1.083       .  S
S1066      C1067   1.730       .  A
C1067      C1068   1.391   1_545  A
C1068      H1072   1.083       .  S
C1073      C1078   1.387       .  A
C1073      C1074   1.404       .  A
C1073      S1079   1.708       .  A
C1074      C1075   1.404       .  A
C1074      H1085   1.083       .  S
C1075      C1084   1.374       .  A
C1075      C1076   1.388       .  A
C1076      C1077   1.401       .  A
C1076      S1082   1.706       .  A
C1077      C1078   1.401       .  A
C1077      H1086   1.083       .  S
C1078      C1081   1.371       .  A
S1079      C1080   1.723       .  A
C1080      C1081   1.385       .  A
C1081      H1087   1.083       .  S
S1082      C1083   1.720       .  A
C1083      C1084   1.387       .  A
C1084      H1088   1.083       .  S
C1089      C1094   1.387       .  A
C1089      C1090   1.402       .  A
C1089      S1095   1.707       .  A
C1090      C1091   1.402       .  A
C1090      H1101   1.083       .  S
C1091      C1100   1.373       .  A
C1091      C1092   1.387       .  A
C1092      C1093   1.407       .  A
C1092      S1098   1.712       .  A
C1093      C1094   1.407       .  A
C1093      H1102   1.083       .  S
C1094      C1097   1.377       .  A
S1095      C1096   1.722       .  A
C1096      C1097   1.390       .  A
C1097      H1103   1.083       .  S
S1098      C1099   1.727       .  A
C1099      C1100   1.385       .  A
C1100      H1104   1.083       .  S
C1105      C1110   1.386   1_565  A
C1105      C1106   1.406       .  A
C1105      S1111   1.713       .  A
C1106      C1107   1.407       .  A
C1106      H1117   1.083       .  S
C1107      C1116   1.376       .  A
C1107      C1108   1.387   1_565  A
C1108      C1109   1.404       .  A
C1108      S1114   1.711       .  A
C1109      C1110   1.405       .  A
C1109      H1118   1.083       .  S
C1110      C1113   1.374       .  A
S1111      C1112   1.727       .  A
C1112      C1113   1.389   1_565  A
C1113      H1119   1.083       .  S
S1114      C1115   1.723       .  A
C1115      C1116   1.390   1_545  A
C1116      H1120   1.083       .  S
C1121      C1126   1.387       .  A
C1121      C1122   1.399       .  A
C1121      S1127   1.707       .  A
C1122      C1123   1.401       .  A
C1122      H1133   1.083       .  S
C1123      C1132   1.368       .  A
C1123      C1124   1.387       .  A
C1124      C1125   1.403       .  A
C1124      S1130   1.712       .  A
C1125      C1126   1.405       .  A
C1125      H1134   1.083       .  S
C1126      C1129   1.370       .  A
S1127      C1128   1.720       .  A
C1128      C1129   1.386       .  A
C1129      H1135   1.083       .  S
S1130      C1131   1.724       .  A
C1131      C1132   1.385       .  A
C1132      H1136   1.083       .  S
C1137      C1142   1.386       .  A
C1137      C1138   1.410       .  A
C1137      S1143   1.718       .  A
C1138      C1139   1.410       .  A
C1138      H1149   1.083       .  S
C1139      C1148   1.381       .  A
C1139      C1140   1.387       .  A
C1140      C1141   1.399       .  A
C1140      S1146   1.702       .  A
C1141      C1142   1.399       .  A
C1141      H1150   1.083       .  S
C1142      C1145   1.369       .  A
S1143      C1144   1.728       .  A
C1144      C1145   1.385       .  A
C1145      H1151   1.083       .  S
S1146      C1147   1.724       .  A
C1147      C1148   1.392       .  A
C1148      H1152   1.083       .  S
C1153      C1158   1.387       .  A
C1153      C1154   1.404       .  A
C1153      S1159   1.711       .  A
C1154      C1155   1.405       .  A
C1154      H1165   1.083       .  S
C1155      C1164   1.373       .  A
C1155      C1156   1.386       .  A
C1156      C1157   1.402       .  A
C1156      S1162   1.711       .  A
C1157      C1158   1.403       .  A
C1157      H1166   1.083       .  S
C1158      C1161   1.370       .  A
S1159      C1160   1.721       .  A
C1160      C1161   1.386       .  A
C1161      H1167   1.083       .  S
S1162      C1163   1.722       .  A
C1163      C1164   1.390       .  A
C1164      H1168   1.083       .  S
C1169      C1174   1.388       .  A
C1169      C1170   1.399       .  A
C1169      S1175   1.700       .  A
C1170      C1171   1.399       .  A
C1170      H1181   1.083       .  S
C1171      C1180   1.369       .  A
C1171      C1172   1.387       .  A
C1172      C1173   1.406       .  A
C1172      S1178   1.711       .  A
C1173      C1174   1.406       .  A
C1173      H1182   1.083       .  S
C1174      C1177   1.377       .  A
S1175      C1176   1.721       .  A
C1176      C1177   1.388       .  A
C1177      H1183   1.083       .  S
S1178      C1179   1.725       .  A
C1179      C1180   1.385       .  A
C1180      H1184   1.083       .  S
C1185      C1190   1.386       .  A
C1185      C1186   1.409       .  A
C1185      S1191   1.716       .  A
C1186      C1187   1.409       .  A
C1186      H1197   1.083       .  S
C1187      C1196   1.380       .  A
C1187      C1188   1.387       .  A
C1188      C1189   1.399       .  A
C1188      S1194   1.702       .  A
C1189      C1190   1.400       .  A
C1189      H1198   1.083       .  S
C1190      C1193   1.371       .  A
S1191      C1192   1.728       .  A
C1192      C1193   1.385       .  A
C1193      H1199   1.083       .  S
S1194      C1195   1.722       .  A
C1195      C1196   1.391       .  A
C1196      H1200   1.083       .  S
C1201      C1206   1.387       .  A
C1201      C1202   1.400       .  A
C1201      S1207   1.707       .  A
C1202      C1203   1.401       .  A
C1202      H1213   1.083       .  S
C1203      C1212   1.368       .  A
C1203      C1204   1.386       .  A
C1204      C1205   1.409       .  A
C1204      S1210   1.719       .  A
C1205      C1206   1.411       .  A
C1205      H1214   1.083       .  S
C1206      C1209   1.380       .  A
S1207      C1208   1.722       .  A
C1208      C1209   1.393       .  A
C1209      H1215   1.083       .  S
S1210      C1211   1.727       .  A
C1211      C1212   1.386       .  A
C1212      H1216   1.083       .  S
C1217      C1222   1.386       .  A
C1217      C1218   1.404       .  A
C1217      S1223   1.708       .  A
C1218      C1219   1.404       .  A
C1218      H1229   1.083       .  S
C1219      C1228   1.376       .  A
C1219      C1220   1.386       .  A
C1220      C1221   1.406       .  A
C1220      S1226   1.709       .  A
C1221      C1222   1.405       .  A
C1221      H1230   1.083       .  S
C1222      C1225   1.377       .  A
S1223      C1224   1.725       .  A
C1224      C1225   1.390       .  A
C1225      H1231   1.083       .  S
S1226      C1227   1.729       .  A
C1227      C1228   1.390       .  A
C1228      H1232   1.083       .  S
C1233      C1238   1.387       .  A
C1233      C1234   1.402       .  A
C1233      S1239   1.708       .  A
C1234      C1235   1.403       .  A
C1234      H1245   1.083       .  S
C1235      C1244   1.370       .  A
C1235      C1236   1.387       .  A
C1236      C1237   1.401       .  A
C1236      S1242   1.708       .  A
C1237      C1238   1.403       .  A
C1237      H1246   1.083       .  S
C1238      C1241   1.370       .  A
S1239      C1240   1.722       .  A
C1240      C1241   1.386       .  A
C1241      H1247   1.083       .  S
S1242      C1243   1.722       .  A
C1243      C1244   1.386       .  A
C1244      H1248   1.083       .  S
C1249      C1254   1.387       .  A
C1249      C1250   1.405       .  A
C1249      S1255   1.709       .  A
C1250      C1251   1.405       .  A
C1250      H1261   1.083       .  S
C1251      C1260   1.375       .  A
C1251      C1252   1.387       .  A
C1252      C1253   1.403       .  A
C1252      S1258   1.709       .  A
C1253      C1254   1.404       .  A
C1253      H1262   1.083       .  S
C1254      C1257   1.374       .  A
S1255      C1256   1.725       .  A
C1256      C1257   1.387       .  A
C1257      H1263   1.083       .  S
S1258      C1259   1.722       .  A
C1259      C1260   1.389       .  A
C1260      H1264   1.083       .  S
C1265      C1270   1.387       .  A
C1265      C1266   1.398       .  A
C1265      S1271   1.701       .  A
C1266      C1267   1.398       .  A
C1266      H1277   1.083       .  S
C1267      C1276   1.367       .  A
C1267      C1268   1.387       .  A
C1268      C1269   1.406       .  A
C1268      S1274   1.713       .  A
C1269      C1270   1.407       .  A
C1269      H1278   1.083       .  S
C1270      C1273   1.376       .  A
S1271      C1272   1.722       .  A
C1272      C1273   1.389       .  A
C1273      H1279   1.083       .  S
S1274      C1275   1.725       .  A
C1275      C1276   1.384       .  A
C1276      H1280   1.083       .  S
C1281      C1286   1.387       .  A
C1281      C1282   1.402       .  A
C1281      S1287   1.706       .  A
C1282      C1283   1.403       .  A
C1282      H1293   1.083       .  S
C1283      C1292   1.371       .  A
C1283      C1284   1.387       .  A
C1284      C1285   1.401       .  A
C1284      S1290   1.707       .  A
C1285      C1286   1.402       .  A
C1285      H1294   1.083       .  S
C1286      C1289   1.370       .  A
S1287      C1288   1.722       .  A
C1288      C1289   1.385       .  A
C1289      H1295   1.083       .  S
S1290      C1291   1.721       .  A
C1291      C1292   1.387       .  A
C1292      H1296   1.083       .  S
C1297      C1302   1.387       .  A
C1297      C1298   1.403       .  A
C1297      S1303   1.705       .  A
C1298      C1299   1.402       .  A
C1298      H1309   1.083       .  S
C1299      C1308   1.374       .  A
C1299      C1300   1.386       .  A
C1300      C1301   1.407       .  A
C1300      S1306   1.711       .  A
C1301      C1302   1.407       .  A
C1301      H1310   1.083       .  S
C1302      C1305   1.379       .  A
S1303      C1304   1.723       .  A
C1304      C1305   1.390       .  A
C1305      H1311   1.083       .  S
S1306      C1307   1.725       .  A
C1307      C1308   1.388       .  A
C1308      H1312   1.083       .  S
C1313      C1318   1.386       .  A
C1313      C1314   1.407       .  A
C1313      S1319   1.714       .  A
C1314      C1315   1.407       .  A
C1314      H1325   1.083       .  S
C1315      C1324   1.378       .  A
C1315      C1316   1.387       .  A
C1316      C1317   1.399       .  A
C1316      S1322   1.701       .  A
C1317      C1318   1.400       .  A
C1317      H1326   1.083       .  S
C1318      C1321   1.369       .  A
S1319      C1320   1.725       .  A
C1320      C1321   1.386       .  A
C1321      H1327   1.083       .  S
S1322      C1323   1.724       .  A
C1323      C1324   1.389       .  A
C1324      H1328   1.083       .  S
C1329      C1334   1.385   1_554  A
C1329      C1330   1.406       .  A
C1329      S1335   1.712       .  A
C1330      C1331   1.406   1_554  A
C1330      H1341   1.083       .  S
C1331      C1340   1.376   1_556  A
C1331      C1332   1.386       .  A
C1332      C1333   1.407       .  A
C1332      S1338   1.714       .  A
C1333      C1334   1.407       .  A
C1333      H1342   1.083       .  S
C1334      C1337   1.377       .  A
S1335      C1336   1.730       .  A
C1336      C1337   1.393   1_554  A
C1337      H1343   1.083       .  S
S1338      C1339   1.726       .  A
C1339      C1340   1.391   1_556  A
C1340      H1344   1.083       .  S
C1345      C1350   1.387       .  A
C1345      C1346   1.406       .  A
C1345      S1351   1.709       .  A
C1346      C1347   1.405       .  A
C1346      H1357   1.083       .  S
C1347      C1356   1.377       .  A
C1347      C1348   1.387       .  A
C1348      C1349   1.404       .  A
C1348      S1354   1.707       .  A
C1349      C1350   1.403       .  A
C1349      H1358   1.083       .  S
C1350      C1353   1.376       .  A
S1351      C1352   1.725       .  A
C1352      C1353   1.387       .  A
C1353      H1359   1.083       .  S
S1354      C1355   1.721       .  A
C1355      C1356   1.389       .  A
C1356      H1360   1.083       .  S
C1361      C1366   1.386       .  A
C1361      C1362   1.407       .  A
C1361      S1367   1.715       .  A
C1362      C1363   1.408       .  A
C1362      H1373   1.083       .  S
C1363      C1372   1.376       .  A
C1363      C1364   1.386       .  A
C1364      C1365   1.401       .  A
C1364      S1370   1.710       .  A
C1365      C1366   1.403       .  A
C1365      H1374   1.083       .  S
C1366      C1369   1.371       .  A
S1367      C1368   1.725       .  A
C1368      C1369   1.388       .  A
C1369      H1375   1.083       .  S
S1370      C1371   1.721       .  A
C1371      C1372   1.392       .  A
C1372      H1376   1.083       .  S
C1377      C1382   1.386       .  A
C1377      C1378   1.402       .  A
C1377      S1383   1.706       .  A
C1378      C1379   1.402       .  A
C1378      H1389   1.083       .  S
C1379      C1388   1.371       .  A
C1379      C1380   1.387       .  A
C1380      C1381   1.403       .  A
C1380      S1386   1.707       .  A
C1381      C1382   1.403       .  A
C1381      H1390   1.083       .  S
C1382      C1385   1.372       .  A
S1383      C1384   1.727       .  A
C1384      C1385   1.389       .  A
C1385      H1391   1.083       .  S
S1386      C1387   1.725       .  A
C1387      C1388   1.386       .  A
C1388      H1392   1.083       .  S
C1393      C1398   1.387       .  A
C1393      C1394   1.405       .  A
C1393      S1399   1.710       .  A
C1394      C1395   1.405       .  A
C1394      H1405   1.083       .  S
C1395      C1404   1.377       .  A
C1395      C1396   1.387       .  A
C1396      C1397   1.405       .  A
C1396      S1402   1.708       .  A
C1397      C1398   1.405       .  A
C1397      H1406   1.083       .  S
C1398      C1401   1.375       .  A
S1399      C1400   1.724       .  A
C1400      C1401   1.388       .  A
C1401      H1407   1.083       .  S
S1402      C1403   1.726       .  A
C1403      C1404   1.388       .  A
C1404      H1408   1.083       .  S
C1409      C1414   1.387       .  A
C1409      C1410   1.406       .  A
C1409      S1415   1.712       .  A
C1410      C1411   1.406       .  A
C1410      H1421   1.083       .  S
C1411      C1420   1.375       .  A
C1411      C1412   1.388       .  A
C1412      C1413   1.398       .  A
C1412      S1418   1.703       .  A
C1413      C1414   1.399       .  A
C1413      H1422   1.083       .  S
C1414      C1417   1.367       .  A
S1415      C1416   1.725       .  A
C1416      C1417   1.383       .  A
C1417      H1423   1.083       .  S
S1418      C1419   1.720       .  A
C1419      C1420   1.389       .  A
C1420      H1424   1.083       .  S
