geometry optimzed in LAMMPS
_audit_creation_date              2020-12-01 
_audit_creation_method            'lammps2cif' 
_symmetry_space_group_name_H-M    'P1' 
_symmetry_Int_Tables_number       1 
_symmetry_cell_setting            triclinic 
loop_ 
_symmetry_equiv_pos_as_xyz 
  x,y,z 
_cell_length_a                    44.21542242 
_cell_length_b                    35.6764752531663 
_cell_length_c                    37.76967717725637 
_cell_angle_alpha                 89.31271742136653 
_cell_angle_beta                  98.4580230679837 
_cell_angle_gamma                 90.72599061190466 
loop_ 
_atom_site_label 
_atom_site_type_symbol 
_atom_site_fract_x 
_atom_site_fract_y 
_atom_site_fract_z 
_atom_site_charge 
C1          C  0.96409547  0.03232649  0.38002342     0.31000
C2          C  0.96335910  0.45487866  0.38531562     0.31000
C3          C  0.93500215  0.00964670  0.36491946    -0.05200
C4          C  0.99010243  0.01521844  0.36113513    -0.05900
C5          C  0.97121177  0.01563333  0.41787103    -0.05800
C6          C  0.93240856  0.46912994  0.36724188    -0.05200
C7          C  0.98621197  0.47525933  0.36447839    -0.05900
C8          C  0.96811578  0.47539796  0.42125377    -0.05800
C9          C  0.91174449  0.45568265  0.33888453    -0.31200
N10         N  0.89412097  0.48439601  0.32434907     0.15300
C11         C  0.90979958  0.01780695  0.34005655    -0.31200
H12         H  0.90044964  0.04508364  0.33326480     0.17200
C13         C  0.01400263  0.46542435  0.35494381    -0.30200
N14         N  0.02888194  0.49667951  0.34552799     0.14000
C15         C  0.01703266  0.02769028  0.34902245    -0.30200
C16         C  0.98527415  0.46715612  0.45358823    -0.30500
N17         N  0.99169130  0.99924461  0.47295452     0.14500
H18         H  0.99415332  0.43978827  0.46164511     0.17100
C19         C  0.98323227  0.02909176  0.45123022    -0.30500
H20         H  0.98742782  0.05816122  0.45834642     0.17100
H21         H  0.02384532  0.05668951  0.34639975     0.17100
H22         H  0.91238253  0.42838668  0.32692002     0.17200
H23         H  0.02349438  0.43758537  0.35714891     0.17100
Zr24       Zr  0.86705900  0.18467869  0.31290758     2.17500
O25         O  0.84729770  0.15269894  0.36224324    -0.50300
O26         O  0.84995143  0.13602488  0.26837233    -0.73500
O27         O  0.81167478  0.19878495  0.31056042    -0.80300
O28         O  0.94346272  0.15536510  0.36061589    -0.82000
O29         O  0.80276890  0.25775517  0.28756544    -0.77700
O30         O  0.90004326  0.12994973  0.33237957    -0.89300
O31         O  0.87346401  0.14722392  0.21965524    -0.75300
O32         O  0.85473268  0.21702494  0.25684664    -0.84700
O33         O  0.91030538  0.17624797  0.28255373    -0.84400
O34         O  0.86191964  0.25032263  0.32701777    -0.71200
O35         O  0.90999551  0.21280378  0.35129203    -0.83300
Zr36       Zr  0.93495974  0.29770708  0.27709711     2.26400
Zr37       Zr  0.85001359  0.28245905  0.27020791     2.06300
Zr38       Zr  0.95297291  0.20443420  0.32014133     2.10000
Zr39       Zr  0.89777818  0.20807600  0.22697617     1.78800
O40         O  0.99406580  0.21933465  0.36841138    -0.92100
O41         O  0.85740722  0.21492370  0.17595466    -0.39900
O42         O  0.93541775  0.23484777  0.26725199    -0.76600
O43         O  0.89189824  0.27289332  0.23800491    -0.95300
O44         O  0.89298788  0.31005847  0.30729512    -0.88600
O45         O  0.94801644  0.26895684  0.33435756    -0.91400
C46         C  0.85712359  0.12686934  0.23773331     1.02300
C47         C  0.92770546  0.12712100  0.34884972     1.15300
C48         C  0.79399402  0.22713708  0.30145765     1.06100
O49         O  0.81270112  0.27885635  0.21611177    -0.93600
O50         O  0.85891060  0.33939504  0.23491296    -0.89300
O51         O  0.91034653  0.34857458  0.24428389    -0.82400
C52         C  0.88346509  0.35790016  0.23078667     1.12700
O53         O  0.88075390  0.26063389  0.41496029    -0.95500
Zr54       Zr  0.90513617  0.27889410  0.36343240     1.88900
O55         O  0.95223441  0.34782725  0.31589756    -0.72200
O56         O  0.82435975  0.33404725  0.29477541    -0.51400
O57         O  0.86944706  0.32560024  0.37853966    -0.96100
O58         O  0.94197264  0.26637308  0.41680898    -0.53300
O59         O  0.93626878  0.33744801  0.36960009    -0.72700
C60         C  0.95065194  0.35674702  0.34806481     0.99600
O61         O  0.96231205  0.32499056  0.23139294    -0.61500
O62         O  0.98437856  0.15186092  0.30737295    -0.56300
O63         O  0.98716951  0.28001722  0.29483229    -0.93000
O64         O  0.99137191  0.22009624  0.28367813    -0.91400
O65         O  0.93628331  0.16775697  0.20799896    -0.91800
O66         O  0.91729878  0.23272377  0.17419777    -0.90600
C67         C  0.99681357  0.25430058  0.27703824     1.18500
H68         H  0.91448762  0.15049119  0.27758330     0.34400
H69         H  0.88887867  0.28576624  0.21514463     0.45300
H70         H  0.96607446  0.27918241  0.34862572     0.38800
H71         H  0.84521847  0.25286478  0.34062208     0.35300
H72         H  0.86155864  0.19529801  0.15902724     0.27100
H73         H  0.84044530  0.35348405  0.30069183     0.33000
H74         H  0.88022577  0.35002048  0.37777516     0.38900
H75         H  0.95145102  0.16398996  0.22975033     0.33400
H76         H  0.99215213  0.14032226  0.33087172     0.32300
H77         H  0.01275340  0.20988628  0.36011372     0.33900
H78         H  0.95982041  0.28275454  0.41445767     0.32900
H79         H  0.92383617  0.25877692  0.18028794     0.36900
H80         H  0.94837588  0.32321040  0.20840211     0.29600
H81         H  0.82905484  0.13854575  0.35097042     0.33900
H82         H  0.88740818  0.27962451  0.43348614     0.36700
H83         H  0.96995511  0.13313700  0.29503887     0.29300
H84         H  0.96429476  0.35213457  0.23659389     0.42200
H85         H  0.82513201  0.27799838  0.19638093     0.32300
H86         H  0.83847212  0.20623490  0.18474354     0.39900
H87         H  0.94921725  0.24069052  0.41346957     0.31700
H88         H  0.81066434  0.34461842  0.27405665     0.31800
H89         H  0.83908434  0.17287324  0.37575837     0.32100
C90         C  0.85962313  0.45364182  0.19424944     0.31000
C91         C  0.86181332  0.02960943  0.19526765     0.31000
C92         C  0.86414307  0.46992024  0.23217129    -0.05200
C93         C  0.88561406  0.47301642  0.17687510    -0.05900
C94         C  0.83071891  0.47353851  0.17614418    -0.05800
C95         C  0.86934742  0.00900106  0.23120921    -0.05200
C96         C  0.88486551  0.01230063  0.17303055    -0.05900
C97         C  0.83109526  0.01139888  0.17906599    -0.05800
C98         C  0.87921455  0.01904996  0.26599528    -0.31200
N99         N  0.87848502  0.48582642  0.28894831     0.15300
C100        C  0.87218124  0.45621690  0.26671747    -0.31200
H101        H  0.87544527  0.42716448  0.27464286     0.17200
C102        C  0.90937650  0.02492666  0.15672194    -0.30200
N103        N  0.92735306  0.49366353  0.15466479     0.14000
C104        C  0.91090742  0.46237803  0.16151115    -0.30200
C105        C  0.80115337  0.02238407  0.17717633    -0.30500
N106        N  0.78288439  0.49407305  0.17136042     0.14500
H107        H  0.79368469  0.05067807  0.18080999     0.17100
C108        C  0.80020045  0.46290661  0.17256233    -0.30500
H109        H  0.79162973  0.43461086  0.17491414     0.17100
H110        H  0.91713991  0.43390837  0.15658658     0.17100
H111        H  0.88419126  0.04735211  0.27508200     0.17200
H112        H  0.91665680  0.05381901  0.15477318     0.17100
C113        C  0.02305388  0.03704881  0.09834480     0.31000
C114        C  0.02324483  0.45869598  0.10043682     0.31000
C115        C  0.04786971  0.01684513  0.12353909    -0.05200
C116        C  0.99352587  0.01770520  0.10816366    -0.05900
C117        C  0.02585024  0.02021427  0.06147720    -0.05800
C118        C  0.05182467  0.47663659  0.12176318    -0.05200
C119        C  0.99657314  0.47636080  0.11668328    -0.05900
C120        C  0.02147571  0.47893534  0.06448451    -0.05800
C121        C  0.07250461  0.46460258  0.15057273    -0.31200
N122        N  0.08436377  0.49495118  0.16897394     0.15300
C123        C  0.06827513  0.02742235  0.15250489    -0.31200
H124        H  0.07156494  0.05558500  0.16253766     0.17200
C125        C  0.97069083  0.46409402  0.13041954    -0.30200
N126        N  0.95532547  0.49451334  0.13994256     0.14000
C127        C  0.96745852  0.02787191  0.12224469    -0.30200
C128        C  0.01200502  0.46764264  0.03027419    -0.30500
N129        N  0.00808082  0.00040777  0.00621577     0.14500
H130        H  0.00724826  0.43903656  0.02200791     0.17100
C131        C  0.01342014  0.03128600  0.02707871    -0.30500
H132        H  0.00588473  0.05925486  0.01906888     0.17100
H133        H  0.96146930  0.05615108  0.12821281     0.17100
H134        H  0.07637525  0.43606969  0.15961885     0.17200
H135        H  0.96360445  0.43518588  0.13292827     0.17100
Zr136      Zr  0.12197635  0.19297330  0.16583642     2.17500
O137        O  0.14718961  0.16953667  0.11744004    -0.50300
O138        O  0.13590582  0.14195017  0.20989374    -0.73500
O139        O  0.17749442  0.20487724  0.17774833    -0.80300
O140        O  0.04128421  0.15342341  0.12427851    -0.82000
O141        O  0.18616349  0.26148504  0.20525014    -0.77700
O142        O  0.09228483  0.14148602  0.13109317    -0.89300
O143        O  0.11276735  0.15218604  0.25867852    -0.75300
O144        O  0.13055306  0.22169290  0.22346325    -0.84700
O145        O  0.07626311  0.18251117  0.19070444    -0.84400
O146        O  0.13077631  0.25969085  0.15706551    -0.71200
O147        O  0.08299389  0.22372925  0.12468724    -0.83300
Zr148      Zr  0.05485888  0.30763580  0.19942969     2.26400
Zr149      Zr  0.13803413  0.28820285  0.21582127     2.06300
Zr150      Zr  0.03706506  0.21339861  0.15008726     2.10000
Zr151      Zr  0.08531227  0.21018760  0.24842968     1.78800
O152        O  0.01557319  0.21484924  0.08695968    -0.92100
O153        O  0.12147316  0.22084816  0.30274149    -0.39900
O154        O  0.04779346  0.24138504  0.20768207    -0.76600
O155        O  0.09262529  0.27632295  0.24199146    -0.95300
O156        O  0.10010674  0.31879608  0.17417708    -0.88600
O157        O  0.04594687  0.27895996  0.14150467    -0.91400
C158        C  0.12961516  0.13283883  0.24124442     1.02300
C159        C  0.06378851  0.13281855  0.12009212     1.15300
C160        C  0.19524969  0.23165468  0.19134643     1.06100
O161        O  0.16853345  0.28184729  0.27466655    -0.93600
O162        O  0.12678713  0.34532001  0.24956362    -0.89300
O163        O  0.07539707  0.34602154  0.24914009    -0.82400
C164        C  0.10220284  0.35937596  0.25882406     1.12700
O165        O  0.12448388  0.28110247  0.07111846    -0.95500
Zr166      Zr  0.09141148  0.29022438  0.11651458     1.88900
O167        O  0.06683210  0.35840161  0.16212248    -0.72200
O168        O  0.17114127  0.33804678  0.19816621    -0.51400
O169        O  0.12335834  0.34561574  0.11154122    -0.96100
O170        O  0.06420857  0.27675834  0.05700707    -0.53300
O171        O  0.05528874  0.34214586  0.10574295    -0.72700
C172        C  0.05140831  0.36355537  0.13153479     0.99600
O173        O  0.01904244  0.35264601  0.21822971    -0.61500
O174        O  0.99927657  0.17276677  0.17260392    -0.56300
O175        O  0.00131489  0.29984710  0.17581467    -0.93000
O176        O  0.98929254  0.24526059  0.15161476    -0.91400
O177        O  0.04401720  0.16728960  0.25842197    -0.91800
O178        O  0.05944779  0.22154971  0.29981370    -0.90600
C179        C  0.98973685  0.26726678  0.17782182     1.18500
H180        H  0.07175608  0.15606573  0.19289972     0.34400
H181        H  0.09465240  0.28610701  0.26594532     0.45300
H182        H  0.02864051  0.28900630  0.12586148     0.42800
H183        H  0.14916395  0.26304236  0.14634878     0.35300
H184        H  0.11783588  0.19985262  0.31903123     0.27100
H185        H  0.15905621  0.36125194  0.19792277     0.33000
H186        H  0.14153927  0.34181383  0.12982975     0.38900
H187        H  0.05429076  0.14502609  0.27034410     0.33400
H188        H  0.98705720  0.16197913  0.15096113     0.32300
H189        H  0.99548450  0.20200317  0.08586775     0.33900
H190        H  0.04275632  0.28377560  0.05796134     0.32900
H191        H  0.06218548  0.24873405  0.30438029     0.36900
H192        H  0.02110985  0.35231526  0.24470312     0.29600
H193        H  0.16360010  0.15297101  0.12908945     0.33900
H194        H  0.12217203  0.30387617  0.05574124     0.36700
H195        H  0.01107947  0.15142530  0.18425453     0.29300
H196        H  0.02682920  0.37767412  0.21209484     0.42200
H197        H  0.18407238  0.30216837  0.27553982     0.32300
H198        H  0.14179092  0.21566086  0.29596170     0.39900
H199        H  0.06364876  0.24906223  0.05553643     0.31700
H200        H  0.18753622  0.34090975  0.21885725     0.31800
H201        H  0.15799548  0.19157530  0.10886769     0.32100
C202        C  0.12591914  0.45736919  0.29588722     0.31000
C203        C  0.13019252  0.03668294  0.28970121     0.31000
C204        C  0.11896180  0.47552311  0.25869096    -0.05200
C205        C  0.10192941  0.47645383  0.31627412    -0.05900
C206        C  0.15639231  0.47691504  0.31132604    -0.05800
C207        C  0.12196893  0.01634842  0.25442256    -0.05200
C208        C  0.10759275  0.01810043  0.31274805    -0.05900
C209        C  0.16134747  0.01937840  0.30472150    -0.05800
C210        C  0.10810672  0.02712539  0.22130534    -0.31200
N211        N  0.10105395  0.49445650  0.20364790     0.15300
C212        C  0.10785924  0.46363162  0.22457302    -0.31200
H213        H  0.10306803  0.43501231  0.21633895     0.17200
C214        C  0.08018809  0.02908173  0.32360621    -0.30200
N215        N  0.05867053  0.49685481  0.33490795     0.14000
C216        C  0.07486653  0.46573086  0.32853814    -0.30200
C217        C  0.19122311  0.03134738  0.30479013    -0.30500
N218        N  0.20477888  0.49766222  0.31452024     0.14500
H219        H  0.19845573  0.05984377  0.30005286     0.17100
C220        C  0.18678478  0.46638858  0.31355621    -0.30500
H221        H  0.19478339  0.43819346  0.31088990     0.17100
H222        H  0.06677617  0.43716863  0.33035538     0.17100
H223        H  0.10192797  0.05543352  0.21321065     0.17200
H224        H  0.07145001  0.05731147  0.32230521     0.17100
C225        C  0.52092893  0.29468934  0.12297111     0.31000
C226        C  0.51844765  0.21832816  0.12396672     0.31000
C227        C  0.55170444  0.27463083  0.13333597    -0.05200
C228        C  0.49954779  0.27692546  0.14822073    -0.05900
C229        C  0.50904297  0.27624380  0.08704477    -0.05800
C230        C  0.54993280  0.23590287  0.13506863    -0.05200
C231        C  0.49863312  0.23749189  0.14863886    -0.05900
C232        C  0.50783627  0.23707872  0.08750284    -0.05800
C233        C  0.57387139  0.22420560  0.15992185    -0.31200
N234        N  0.59096164  0.25433849  0.17214945     0.15300
C235        C  0.57843595  0.28495441  0.15480247    -0.31200
H236        H  0.58638093  0.31312167  0.16088782     0.17200
C237        C  0.47120159  0.22651375  0.15936233    -0.30200
N238        N  0.45544109  0.25729777  0.16642836     0.14000
C239        C  0.47196685  0.28811341  0.15849648    -0.30200
C240        C  0.49790556  0.22580151  0.05308883    -0.30500
N241        N  0.49313697  0.25696413  0.03186795     0.14500
H242        H  0.49463358  0.19711137  0.04433565     0.17100
C243        C  0.49988770  0.28789940  0.05233374    -0.30500
H244        H  0.49853480  0.31659125  0.04277199     0.17100
H245        H  0.46366657  0.31654577  0.15742039     0.17100
H246        H  0.57548973  0.19664510  0.17213292     0.17200
H247        H  0.46239423  0.19809715  0.15901607     0.17100
Zr248      Zr  0.62188744  0.44573021  0.17428873     2.17500
O249        O  0.63063634  0.41142513  0.12132884    -0.50300
O250        O  0.63962775  0.39933532  0.22063282    -0.73500
O251        O  0.67781496  0.44798697  0.17164462    -0.80300
O252        O  0.53551408  0.41911611  0.15090958    -0.82000
O253        O  0.69403869  0.00286161  0.19711345    -0.77700
O254        O  0.58321566  0.39443998  0.16236741    -0.89300
O255        O  0.62233608  0.41631509  0.27184295    -0.75300
O256        O  0.64295858  0.48016004  0.22625220    -0.84700
O257        O  0.58252799  0.44709145  0.21130986    -0.84400
O258        O  0.63455194  0.00644255  0.15701233    -0.71200
O259        O  0.57926599  0.47682614  0.13884485    -0.83300
Zr260      Zr  0.57258251  0.07322356  0.20957570     2.26400
Zr261      Zr  0.65254354  0.04009951  0.21093424     2.06300
Zr262      Zr  0.54103250  0.48023463  0.17730008     2.10000
Zr263      Zr  0.60377505  0.48075504  0.26265181     1.78800
O264        O  0.50155420  0.49126112  0.12623600    -0.92100
O265        O  0.65004698  0.48716564  0.30620772    -0.39900
O266        O  0.56744383  0.51249091  0.22393196    -0.76600
O267        O  0.61257310  0.03989793  0.24690312    -0.95300
O268        O  0.61289947  0.07372165  0.17443141    -0.88600
O269        O  0.55340862  0.03989721  0.15595663    -0.91400
C270        C  0.63543079  0.39321316  0.25322759     1.02300
C271        C  0.55376990  0.39153456  0.15415462     1.15300
C272        C  0.69878068  0.47364013  0.17863471     1.06100
O273        O  0.69236788  0.03937625  0.26284422    -0.93600
O274        O  0.65518519  0.10035769  0.24245339    -0.89300
O275        O  0.60635508  0.11869175  0.24363780    -0.82400
C276        C  0.63537857  0.12290346  0.25199191     1.12700
O277        O  0.61644666  0.01121089  0.07319593    -0.95500
Zr278      Zr  0.59393191  0.03942249  0.12160692     1.88900
O279        O  0.55780557  0.12061893  0.16400613    -0.72200
O280        O  0.68255956  0.07899978  0.17527116    -0.51400
O281        O  0.63239709  0.07997135  0.10033181    -0.96100
O282        O  0.55552998  0.02930464  0.06915899    -0.53300
O283        O  0.56701421  0.09895436  0.11027354    -0.72700
C284        C  0.55609393  0.12312549  0.12981965     0.99600
O285        O  0.54964307  0.10970857  0.25288509    -0.61500
O286        O  0.50591157  0.44097915  0.20615022    -0.56300
O287        O  0.51811240  0.06634874  0.19614869    -0.93000
O288        O  0.50523152  0.50988943  0.20990716    -0.91400
O289        O  0.56314210  0.45064769  0.29012509    -0.91800
O290        O  0.59225581  0.50786278  0.31797320    -0.90600
C291        C  0.50541234  0.04130309  0.21284940     1.18500
H292        H  0.57607528  0.42265669  0.21874869     0.34400
H293        H  0.61897655  0.05305472  0.26897624     0.45300
H294        H  0.53589875  0.05143328  0.14186535     0.38800
H295        H  0.65073657  0.00510771  0.14247779     0.35300
H296        H  0.66411741  0.46789149  0.29970230     0.27100
H297        H  0.67185283  0.10329578  0.17245361     0.33000
H298        H  0.62091923  0.10136046  0.08830603     0.38900
H299        H  0.54397074  0.45992732  0.27608406     0.33400
H300        H  0.49013237  0.43224354  0.18652204     0.32300
H301        H  0.48478269  0.50328527  0.13649265     0.33900
H302        H  0.53744676  0.04357546  0.07366133     0.32900
H303        H  0.58281487  0.03146796  0.31054967     0.36900
H304        H  0.56231599  0.10563968  0.27648071     0.29600
H305        H  0.63861634  0.38683994  0.13057782     0.33900
H306        H  0.61083930  0.02769199  0.05203076     0.36700
H307        H  0.51750363  0.41821215  0.21459759     0.29300
H308        H  0.55245503  0.13648326  0.24679439     0.42200
H309        H  0.70832838  0.05688894  0.25650369     0.32300
H310        H  0.65945267  0.51127479  0.30015315     0.39900
H311        H  0.54925910  0.00269765  0.07098278     0.31700
H312        H  0.70181606  0.08442731  0.19141592     0.31800
H313        H  0.64814591  0.42415185  0.11250675     0.32100
C314        C  0.63212811  0.21800018  0.29804008     0.31000
C315        C  0.63279715  0.29476512  0.29723188     0.31000
C316        C  0.62539782  0.23708664  0.26147181    -0.05200
C317        C  0.60885519  0.23688286  0.31918480    -0.05900
C318        C  0.66303520  0.23627800  0.31381519    -0.05800
C319        C  0.62522760  0.27567588  0.26093311    -0.05200
C320        C  0.60927796  0.27602030  0.31887490    -0.05900
C321        C  0.66356956  0.27598423  0.31300264    -0.05800
C322        C  0.61484064  0.28670455  0.22631956    -0.31200
N323        N  0.60925259  0.25552178  0.20595025     0.15300
C324        C  0.61598633  0.22511289  0.22726080    -0.31200
H325        H  0.61194698  0.19636615  0.21914700     0.17200
C326        C  0.58509606  0.28748876  0.33595499    -0.30200
N327        N  0.57015324  0.25663011  0.34686330     0.14000
C328        C  0.58452576  0.22567594  0.33656738    -0.30200
C329        C  0.69366274  0.28610026  0.31065563    -0.30500
N330        N  0.71135780  0.25503930  0.31155997     0.14500
H331        H  0.70150027  0.31410980  0.30503131     0.17100
C332        C  0.69278452  0.22466963  0.31305426    -0.30500
H333        H  0.69965120  0.19610823  0.30985566     0.17100
H334        H  0.57739987  0.19699645  0.34034445     0.17100
H335        H  0.60925777  0.31503996  0.21755027     0.17200
H336        H  0.57844855  0.31616411  0.33917003     0.17100
C337        C  0.47261670  0.29233953  0.39950974     0.31000
C338        C  0.47487219  0.21573047  0.40127696     0.31000
C339        C  0.44761545  0.27148815  0.37538725    -0.05200
C340        C  0.50201423  0.27519466  0.38776967    -0.05900
C341        C  0.47140723  0.27376285  0.43627094    -0.05800
C342        C  0.44815769  0.23297146  0.37639957    -0.05200
C343        C  0.50307091  0.23582587  0.38901610    -0.05900
C344        C  0.47246977  0.23450044  0.43697478    -0.05800
C345        C  0.42441587  0.22049632  0.35123246    -0.31200
N346        N  0.41024681  0.25105862  0.33508784     0.15300
C347        C  0.42440612  0.28214490  0.34959036    -0.31200
H348        H  0.41931773  0.31055571  0.34088809     0.17200
C349        C  0.52875510  0.22524127  0.37464414    -0.30200
N350        N  0.54352654  0.25649855  0.36437628     0.14000
C351        C  0.52730112  0.28711568  0.37218058    -0.30200
C352        C  0.48174971  0.22356949  0.47182570    -0.30500
N353        N  0.48582417  0.25456451  0.49246118     0.14500
H354        H  0.48769286  0.19536966  0.48080475     0.17100
C355        C  0.48046279  0.28536334  0.47098224    -0.30500
H356        H  0.48495982  0.31403563  0.47929961     0.17100
H357        H  0.53269415  0.31585567  0.36589914     0.17100
H358        H  0.41883680  0.19172069  0.34413786     0.17200
H359        H  0.53543796  0.19669571  0.37087581     0.17100
Zr360      Zr  0.36530431  0.44228536  0.34307880     2.17500
O361        O  0.34071943  0.40688286  0.38674804    -0.50300
O362        O  0.35259939  0.39521196  0.29624876    -0.73500
O363        O  0.30904958  0.45103992  0.33235704    -0.80300
O364        O  0.44770806  0.40820637  0.38051844    -0.82000
O365        O  0.30420869  0.01038276  0.29718407    -0.77700
O366        O  0.39761645  0.39143677  0.37593103    -0.89300
O367        O  0.37719870  0.41026721  0.24929989    -0.75300
O368        O  0.35715676  0.47411238  0.28612481    -0.84700
O369        O  0.41248093  0.43795312  0.32004833    -0.84400
O370        O  0.36281417  0.01264484  0.34583152    -0.71200
O371        O  0.40186362  0.47439058  0.38667736    -0.83300
Zr372      Zr  0.43664347  0.05832486  0.29339080     2.26400
Zr373      Zr  0.35176631  0.04012058  0.28671463     2.06300
Zr374      Zr  0.44873696  0.47184414  0.36215544     2.10000
Zr375      Zr  0.40422866  0.46948117  0.26367395     1.78800
O376        O  0.46851892  0.48588371  0.42428994    -0.92100
O377        O  0.37204790  0.48012653  0.20618663    -0.39900
O378        O  0.43577482  0.50135901  0.30776474    -0.76600
O379        O  0.39457672  0.02882605  0.25696676    -0.95300
O380        O  0.39359012  0.07137333  0.32173452    -0.88600
O381        O  0.44808282  0.03245826  0.35247808    -0.91400
C382        C  0.35970616  0.38882875  0.26503227     1.02300
C383        C  0.42667690  0.38487467  0.38485349     1.15300
C384        C  0.29039854  0.47653978  0.31799697     1.06100
O385        O  0.31910693  0.03934552  0.22890966    -0.93600
O386        O  0.35978722  0.09852042  0.25274555    -0.89300
O387        O  0.41053362  0.11199827  0.26622594    -0.82400
C388        C  0.38354739  0.11958084  0.25105907     1.12700
O389        O  0.37741106  0.03466632  0.43038237    -0.95500
Zr390      Zr  0.40524820  0.04558739  0.38005167     1.88900
O391        O  0.45650715  0.10988183  0.32886391    -0.72200
O392        O  0.32163162  0.08676843  0.31207730    -0.51400
O393        O  0.37064862  0.09690568  0.38619089    -0.96100
O394        O  0.43740062  0.04028179  0.43809184    -0.53300
O395        O  0.43980484  0.10195875  0.38273652    -0.72700
C396        C  0.45527758  0.11964031  0.36096329     0.99600
O397        O  0.45151975  0.07851602  0.23625819    -0.61500
O398        O  0.49912523  0.44302221  0.36751373    -0.56300
O399        O  0.48980895  0.04796632  0.31772423    -0.93000
O400        O  0.48989781  0.49377123  0.33274351    -0.91400
O401        O  0.44533790  0.42742764  0.25474699    -0.91800
O402        O  0.43194199  0.48810574  0.21497158    -0.90600
C403        C  0.50386579  0.01919311  0.30956655     1.18500
H404        H  0.41832369  0.41239143  0.31676819     0.34400
H405        H  0.39125876  0.04043929  0.23350650     0.45300
H406        H  0.46565275  0.04308401  0.36738068     0.38800
H407        H  0.34532073  0.01555283  0.35805878     0.35300
H408        H  0.35259954  0.46670782  0.20801556     0.27100
H409        H  0.33569133  0.10846845  0.31732932     0.33000
H410        H  0.38370506  0.11665824  0.39902654     0.38900
H411        H  0.46142762  0.43181301  0.27547680     0.33400
H412        H  0.50299296  0.43157799  0.39175214     0.32300
H413        H  0.49088662  0.48878938  0.42491965     0.33900
H414        H  0.43338439  0.06333104  0.45092622     0.32900
H415        H  0.43416871  0.00833455  0.20353297     0.36900
H416        H  0.43288073  0.07785386  0.21818871     0.29600
H417        H  0.32526765  0.39073129  0.37241136     0.33900
H418        H  0.36636128  0.01062010  0.42501190     0.36700
H419        H  0.49670608  0.42150057  0.35095376     0.29300
H420        H  0.45738820  0.10535848  0.23862802     0.42200
H421        H  0.30304934  0.05792103  0.23109110     0.32300
H422        H  0.36665057  0.50697617  0.20559114     0.39900
H423        H  0.45856495  0.04376478  0.43291083     0.31700
H424        H  0.30653035  0.09531000  0.29168046     0.31800
H425        H  0.32873855  0.42548192  0.39791818     0.32100
C426        C  0.35742433  0.21675341  0.21489257     0.31000
C427        C  0.35892063  0.29329167  0.21746505     0.31000
C428        C  0.36211607  0.23370168  0.25247870    -0.05200
C429        C  0.38290600  0.23627396  0.19679713    -0.05900
C430        C  0.32807060  0.23630219  0.19701315    -0.05800
C431        C  0.36294089  0.27262037  0.25342487    -0.05200
C432        C  0.38369266  0.27531070  0.19838327    -0.05900
C433        C  0.32886287  0.27589470  0.19823279    -0.05800
C434        C  0.37896429  0.28267841  0.28563623    -0.31200
N435        N  0.38775687  0.25140840  0.30467313     0.15300
C436        C  0.37777956  0.22127250  0.28481777    -0.31200
H437        H  0.38445623  0.19283729  0.29179144     0.17200
C438        C  0.41047308  0.28733966  0.18639736    -0.30200
N439        N  0.42580949  0.25690599  0.17714173     0.14000
C440        C  0.40915557  0.22563964  0.18350880    -0.30200
C441        C  0.29893022  0.28699908  0.19721582    -0.30500
N442        N  0.28012085  0.25650448  0.19440202     0.14500
H443        H  0.29167895  0.31514207  0.20193719     0.17100
C444        C  0.29769787  0.22552124  0.19522329    -0.30500
H445        H  0.28955615  0.19717812  0.19857295     0.17100
H446        H  0.41622198  0.19711577  0.18047347     0.17100
H447        H  0.38700174  0.31073352  0.29234127     0.17200
H448        H  0.41889538  0.31591657  0.18634822     0.17100
C449        C  0.34771291  0.35337959  0.24730800    -0.15400
C450        C  0.36129701  0.33593768  0.22215112    -0.30600
H451        H  0.33096451  0.33771161  0.26007365     0.13600
H452        H  0.37893004  0.35088072  0.21032701     0.14200
C453        C  0.38182123  0.15623826  0.23225497    -0.15400
C454        C  0.35655942  0.17399930  0.21708522    -0.30600
H455        H  0.40306948  0.17233931  0.23615655     0.13600
H456        H  0.33481761  0.15908008  0.21261184     0.14200
C457        C  0.46610016  0.33438686  0.39696038    -0.15400
C458        C  0.43750186  0.34771443  0.39973388    -0.30600
H459        H  0.48306280  0.35262786  0.38738584     0.13600
H460        H  0.42047677  0.32876398  0.40824312     0.14200
C461        C  0.47222373  0.17327376  0.40150557    -0.15400
C462        C  0.47200433  0.15502648  0.37076764    -0.30600
H463        H  0.46424307  0.15918816  0.42410967     0.13600
H464        H  0.48024575  0.17011393  0.34879668     0.14200
C465        C  0.50666825  0.04539063  0.25124419    -0.15400
C466        C  0.51045879  0.01593344  0.27331163    -0.30600
H467        H  0.50454775  0.07318474  0.26184635     0.13600
H468        H  0.51438221  0.98821893  0.26341252     0.14200
C469        C  0.64558744  0.35615842  0.26902698    -0.15400
C470        C  0.63156609  0.33760410  0.29371255    -0.30600
H471        H  0.66107074  0.34062539  0.25497458     0.13600
H472        H  0.61501612  0.35231800  0.30681425     0.14200
C473        C  0.64659374  0.15729377  0.27184339    -0.15400
C474        C  0.62997514  0.17545398  0.29373901    -0.30600
H475        H  0.66606476  0.17136959  0.26294659     0.13600
H476        H  0.61071370  0.16099376  0.30280521     0.14200
C477        C  0.52526620  0.33716820  0.12330797    -0.15400
C478        C  0.53952704  0.35388895  0.15311270    -0.30600
H479        H  0.52090546  0.35299580  0.09838914     0.13600
H480        H  0.54368330  0.33772463  0.17787526     0.14200
C481        C  0.52029125  0.17595543  0.12688960    -0.15400
C482        C  0.54155730  0.15701620  0.11218810    -0.30600
H483        H  0.50932641  0.16232466  0.14761798     0.13600
H484        H  0.55212164  0.16993793  0.09079501     0.14200
C485        C  0.23729162  0.50025564  0.31291945    -0.15400
C486        C  0.25691930  0.47117604  0.31901209    -0.30600
H487        H  0.24644498  0.52779133  0.30744142     0.13600
H488        H  0.24868316  0.44379631  0.32632559     0.14200
C489        C  0.22855556  0.22831353  0.19021676    -0.15400
C490        C  0.24774546  0.25812578  0.19615726    -0.30600
H491        H  0.23707279  0.20149882  0.18300743     0.13600
H492        H  0.23844719  0.28517242  0.20157678     0.14200
C493        C  0.10241412  0.39506844  0.27886992    -0.15400
C494        C  0.12725740  0.41467714  0.29303758    -0.30600
H495        H  0.08047713  0.40899030  0.27651522     0.13600
H496        H  0.14940056  0.40130591  0.29601680     0.14200
C497        C  0.14125306  0.09663337  0.25759417    -0.15400
C498        C  0.12859251  0.07917192  0.28421300    -0.30600
H499        H  0.15660612  0.08099898  0.24344584     0.13600
H500        H  0.11255077  0.09426084  0.29776772     0.14200
C501        C  0.02586497  0.41652483  0.09781919    -0.15400
C502        C  0.03061454  0.39575084  0.12761239    -0.30600
H503        H  0.03128532  0.40486681  0.07309893     0.13600
H504        H  0.02576840  0.40812228  0.15231038     0.14200
C505        C  0.02752938  0.07945354  0.10212661    -0.15400
C506        C  0.05576757  0.09592103  0.10283513    -0.30600
H507        H  0.00896223  0.09526767  0.11031143     0.13600
H508        H  0.07445300  0.07940494  0.09581780     0.14200
C509        C  0.75058064  0.49655483  0.17290437    -0.15400
C510        C  0.73083148  0.46695878  0.17245007    -0.30600
H511        H  0.74157643  0.02200302  0.17989503     0.13600
H512        H  0.73814152  0.43864027  0.16833914     0.14200
C513        C  0.76133551  0.22490629  0.30796589    -0.15400
C514        C  0.74310324  0.25558567  0.30552326    -0.30600
H515        H  0.75258752  0.19799870  0.31579787     0.13600
H516        H  0.75279113  0.28250974  0.29904521     0.14200
C517        C  0.00429787  0.26479525  0.24265568    -0.15400
C518        C  0.98788234  0.25077230  0.21304053    -0.30600
H519        H  0.01955695  0.28843167  0.24150538     0.13600
H520        H  0.97272005  0.22694600  0.21475958     0.14200
C521        C  0.84772296  0.08921033  0.22349305    -0.15400
C522        C  0.86271939  0.07197546  0.19945060    -0.30600
H523        H  0.83204720  0.07291209  0.23733184     0.13600
H524        H  0.87921688  0.08774330  0.18644200     0.14200
C525        C  0.88299794  0.39369783  0.21138234    -0.15400
C526        C  0.85818381  0.41134859  0.19560845    -0.30600
H527        H  0.90446384  0.40941232  0.21561588     0.13600
H528        H  0.83630650  0.39674704  0.19084195     0.14200
C529        C  0.95857851  0.07450699  0.37874234    -0.15400
C530        C  0.94366624  0.09099314  0.34907475    -0.30600
H531        H  0.96117989  0.08977925  0.40372148     0.13600
H532        H  0.94132276  0.07628969  0.32381812     0.14200
C533        C  0.96303751  0.41237508  0.38755519    -0.15400
C534        C  0.96561708  0.39301665  0.35805573    -0.30600
H535        H  0.95184192  0.39916770  0.40829660     0.13600
H536        H  0.97475772  0.40745618  0.33639964     0.14200
C537        C  0.96914394  0.03249571  0.87746317     0.31000
C538        C  0.97174432  0.45386953  0.88281290     0.31000
C539        C  0.94142059  0.00994775  0.85900429    -0.05200
C540        C  0.99688332  0.01521118  0.86208387    -0.05900
C541        C  0.97273240  0.01568073  0.91542222    -0.05800
C542        C  0.94020812  0.46874147  0.86721294    -0.05200
C543        C  0.99320515  0.47364921  0.85940758    -0.05900
C544        C  0.97926820  0.47464504  0.91831353    -0.05800
C545        C  0.92030207  0.45631936  0.83774160    -0.31200
N546        N  0.90386320  0.48549537  0.82238991     0.15300
C547        C  0.91511242  0.01824386  0.83634522    -0.31200
H548        H  0.90574112  0.04567674  0.83032281     0.17200
C549        C  0.02115570  0.46411695  0.84970901    -0.30200
N550        N  0.03608740  0.49565690  0.84078707     0.14000
C551        C  0.02355441  0.02742381  0.84951083    -0.30200
C552        C  0.99006234  0.46509114  0.95298847    -0.30500
N553        N  0.99306766  0.99910544  0.97059167     0.14500
H554        H  0.99513039  0.43695538  0.96278196     0.17100
C555        C  0.98519879  0.02894157  0.94869684    -0.30500
H556        H  0.99040672  0.05789618  0.95550530     0.17100
H557        H  0.02998794  0.05635011  0.84560794     0.17100
H558        H  0.92129575  0.42940418  0.82526429     0.17200
H559        H  0.03076018  0.43632290  0.85168792     0.17100
Zr560      Zr  0.86844171  0.18212532  0.81628049     2.17500
O561        O  0.85572085  0.14684876  0.86779449    -0.50300
O562        O  0.85050775  0.13380654  0.77100159    -0.73500
O563        O  0.81266972  0.19073856  0.82039359    -0.80300
O564        O  0.95247690  0.15638307  0.84839512    -0.82000
O565        O  0.80016670  0.24965589  0.80017386    -0.77700
O566        O  0.90591225  0.13018564  0.83121693    -0.89300
O567        O  0.86851244  0.14859787  0.71917792    -0.75300
O568        O  0.84783952  0.21756023  0.76451927    -0.84700
O569        O  0.90605665  0.17978901  0.77722577    -0.84400
O570        O  0.86348180  0.24609024  0.83610786    -0.71200
O571        O  0.91381001  0.21229044  0.84805571    -0.83300
Zr572      Zr  0.92388244  0.30547598  0.77269506     2.26400
Zr573      Zr  0.84369204  0.28128061  0.78338776     2.06300
Zr574      Zr  0.95134213  0.20892053  0.80839807     2.10000
Zr575      Zr  0.88440540  0.21310128  0.72472103     1.78800
O576        O  0.99662547  0.22241387  0.85164624    -0.92100
O577        O  0.83471115  0.21452647  0.68695033    -0.39900
O578        O  0.92920071  0.24195575  0.75493899    -0.76600
O579        O  0.87854677  0.27660938  0.74114540    -0.95300
O580        O  0.88836084  0.31168812  0.81342316    -0.88600
O581        O  0.94548314  0.27243638  0.82604661    -0.91400
C582        C  0.85562236  0.12610907  0.73902148     1.02300
C583        C  0.93497090  0.12797747  0.84274432     1.15300
C584        C  0.79342613  0.21806029  0.81329882     1.06100
O585        O  0.79764968  0.29174792  0.74063425    -0.93600
O586        O  0.84242328  0.33968837  0.74910701    -0.89300
O587        O  0.89107197  0.35180015  0.73956492    -0.82400
C588        C  0.86248514  0.35915931  0.73541452     1.12700
O589        O  0.89191276  0.25659418  0.92103661    -0.95500
Zr590      Zr  0.90917674  0.27704057  0.86543403     1.88900
O591        O  0.94404500  0.35359037  0.81277760    -0.72200
O592        O  0.82567525  0.32298977  0.82623425    -0.51400
O593        O  0.87727805  0.32288437  0.88924188    -0.96100
O594        O  0.95136628  0.26026145  0.91186210    -0.53300
O595        O  0.94209599  0.33464687  0.87001697    -0.72700
C596        C  0.95082990  0.35743160  0.84650066     0.99600
O597        O  0.94672411  0.34393243  0.72939252    -0.61500
O598        O  0.97967489  0.15892260  0.78479426    -0.56300
O599        O  0.97658662  0.28699082  0.78145484    -0.93000
O600        O  0.98449479  0.22916434  0.76690883    -0.91400
O601        O  0.92121653  0.18369179  0.69211876    -0.91800
O602        O  0.88974046  0.24217278  0.66725465    -0.90600
C603        C  0.98509578  0.26402086  0.76002097     1.18500
H604        H  0.91079769  0.15454052  0.77114965     0.34400
H605        H  0.87113381  0.28966793  0.71911094     0.45300
H606        H  0.96454874  0.28247310  0.83828744     0.38800
H607        H  0.84879487  0.24612544  0.85268082     0.35300
H608        H  0.83724281  0.19900069  0.66605020     0.27100
H609        H  0.80635938  0.33322701  0.81337979     0.33000
H610        H  0.88894243  0.34679435  0.88989395     0.38900
H611        H  0.93806719  0.17589319  0.71089280     0.33400
H612        H  0.99435944  0.14970163  0.80528500     0.32300
H613        H  0.00919860  0.19958614  0.85220774     0.33900
H614        H  0.96742914  0.27952356  0.91024811     0.32900
H615        H  0.90653640  0.26076556  0.67281992     0.36900
H616        H  0.93385495  0.34069079  0.70582847     0.29600
H617        H  0.83963600  0.12879226  0.85770490     0.33900
H618        H  0.90133472  0.27438647  0.93949272     0.36700
H619        H  0.96489395  0.13801841  0.77916120     0.29300
H620        H  0.94455623  0.37048326  0.73590112     0.42200
H621        H  0.79229264  0.26692604  0.72988425     0.32300
H622        H  0.82086441  0.19948864  0.70001859     0.39900
H623        H  0.95977062  0.23706351  0.90321417     0.31700
H624        H  0.81915135  0.30626980  0.84488261     0.31800
H625        H  0.84507019  0.16487037  0.88127170     0.32100
C626        C  0.86919121  0.45431170  0.69227769     0.31000
C627        C  0.86257195  0.02948852  0.69552104     0.31000
C628        C  0.87672003  0.47127060  0.72956841    -0.05200
C629        C  0.89252624  0.47474175  0.67156435    -0.05900
C630        C  0.83842962  0.47280016  0.67738804    -0.05800
C631        C  0.86774650  0.00858722  0.73137073    -0.05200
C632        C  0.88719894  0.01234150  0.67544365    -0.05900
C633        C  0.83260874  0.01157763  0.67665471    -0.05800
C634        C  0.87907706  0.01860438  0.76565462    -0.31200
N635        N  0.89022092  0.48728251  0.78619948     0.15300
C636        C  0.88529339  0.45771115  0.76385418    -0.31200
H637        H  0.88883787  0.42869341  0.77169845     0.17200
C638        C  0.91252636  0.02483173  0.66056861    -0.30200
N639        N  0.93173500  0.49696390  0.64539772     0.14000
C640        C  0.91706801  0.46505940  0.65448823    -0.30200
C641        C  0.80274120  0.02236254  0.67582070    -0.30500
N642        N  0.78997042  0.49190970  0.67248663     0.14500
H643        H  0.79543363  0.05041784  0.68079608     0.17100
C644        C  0.80799312  0.46117544  0.67371236    -0.30500
H645        H  0.79984446  0.43257323  0.67501565     0.17100
H646        H  0.92429065  0.43680672  0.65038345     0.17100
H647        H  0.88538041  0.04681839  0.77401396     0.17200
H648        H  0.91993144  0.05370499  0.65886916     0.17100
C649        C  0.02513293  0.03693792  0.60052019     0.31000
C650        C  0.02985642  0.46396713  0.59485052     0.31000
C651        C  0.05119920  0.01720292  0.62412368    -0.05200
C652        C  0.99670697  0.01711139  0.61247928    -0.05900
C653        C  0.02610492  0.02018772  0.56330191    -0.05800
C654        C  0.05585501  0.48199827  0.61995084    -0.05200
C655        C  0.00079647  0.48133256  0.60647766    -0.05900
C656        C  0.03240070  0.48354841  0.55935214    -0.05800
C657        C  0.07818499  0.46962890  0.64669609    -0.31200
N658        N  0.09090707  0.49998930  0.66449961     0.15300
C659        C  0.07293493  0.02819720  0.65166078    -0.31200
H660        H  0.07618587  0.05637330  0.66170254     0.17200
C661        C  0.97470315  0.46861555  0.61954802    -0.30200
N662        N  0.95895183  0.49865534  0.62913217     0.14000
C663        C  0.97081098  0.02734082  0.62668460    -0.30200
C664        C  0.01961343  0.47187004  0.52617134    -0.30500
N665        N  0.00694661  0.00056742  0.50849088     0.14500
H666        H  0.01330347  0.44317542  0.51951070     0.17100
C667        C  0.01277106  0.03142481  0.52929988    -0.30500
H668        H  0.00526650  0.05947074  0.52153494     0.17100
H669        H  0.96442366  0.05570529  0.63178326     0.17100
H670        H  0.08303863  0.44082670  0.65438468     0.17200
H671        H  0.96832830  0.43956837  0.62283153     0.17100
Zr672      Zr  0.12333042  0.19285220  0.66424298     2.17500
O673        O  0.14776057  0.16938941  0.61522652    -0.50300
O674        O  0.13788220  0.14226887  0.70852301    -0.73500
O675        O  0.17901363  0.20264721  0.67657568    -0.80300
O676        O  0.04324409  0.15560584  0.61818822    -0.82000
O677        O  0.18827083  0.25598823  0.70930353    -0.77700
O678        O  0.09377875  0.14122374  0.62968768    -0.89300
O679        O  0.11303486  0.15045515  0.75634978    -0.75300
O680        O  0.12955354  0.21748070  0.72355236    -0.84700
O681        O  0.07592528  0.18212577  0.68530901    -0.84400
O682        O  0.13457294  0.25961232  0.65957319    -0.71200
O683        O  0.08662975  0.22752633  0.62309853    -0.83300
Zr684      Zr  0.05557889  0.30350608  0.70115884     2.26400
Zr685      Zr  0.14033960  0.28360680  0.71968536     2.06300
Zr686      Zr  0.03887124  0.21537565  0.64413908     2.10000
Zr687      Zr  0.08216474  0.20584067  0.74448301     1.78800
O688        O  0.02079878  0.21859250  0.58007598    -0.92100
O689        O  0.10944446  0.21423888  0.80482002    -0.39900
O690        O  0.04352106  0.23794853  0.70487574    -0.76600
O691        O  0.09331808  0.27142851  0.74188449    -0.95300
O692        O  0.10275639  0.31705570  0.68038186    -0.88600
O693        O  0.05060773  0.28041411  0.64118836    -0.91400
C694        C  0.13140792  0.13259523  0.73965030     1.02300
C695        C  0.06545149  0.13355479  0.61691452     1.15300
C696        C  0.19708532  0.22767184  0.69285142     1.06100
O697        O  0.16715866  0.27282797  0.77991810    -0.93600
O698        O  0.13078069  0.34183988  0.75174853    -0.89300
O699        O  0.08075277  0.35539907  0.73374338    -0.82400
C700        C  0.10711507  0.36293304  0.75113411     1.12700
O701        O  0.12840258  0.28110579  0.57508718    -0.95500
Zr702      Zr  0.09684222  0.29449398  0.62098602     1.88900
O703        O  0.04339708  0.35784585  0.66695706    -0.72200
O704        O  0.17564118  0.33362825  0.70770824    -0.51400
O705        O  0.13495866  0.34431102  0.62059432    -0.96100
O706        O  0.06999139  0.29440299  0.55982586    -0.53300
O707        O  0.06395746  0.35121184  0.61552319    -0.72700
C708        C  0.04736932  0.36832545  0.63574258     0.99600
O709        O  0.03418565  0.32109549  0.75485219    -0.61500
O710        O  0.99805709  0.17499000  0.66022529    -0.56300
O711        O  0.00477746  0.30225719  0.66466907    -0.93000
O712        O  0.99153180  0.24950818  0.63714160    -0.91400
O713        O  0.04489547  0.15539973  0.74726137    -0.91800
O714        O  0.04974533  0.21746621  0.78987990    -0.90600
C715        C  0.98948003  0.27159123  0.66264903     1.18500
H716        H  0.07095316  0.15572052  0.68623473     0.34400
H717        H  0.09439982  0.28172935  0.76556527     0.45300
H718        H  0.03557877  0.29202002  0.62344716     0.42800
H719        H  0.15331975  0.26323480  0.64966605     0.35300
H720        H  0.11144363  0.18871531  0.81541445     0.27100
H721        H  0.19316588  0.33154051  0.72720865     0.33000
H722        H  0.12967746  0.35681546  0.59698473     0.38900
H723        H  0.05196765  0.14191675  0.76998006     0.33400
H724        H  0.98716810  0.16569602  0.63714883     0.32300
H725        H  0.99985363  0.20777929  0.57733028     0.33900
H726        H  0.07166626  0.32056520  0.55120318     0.32900
H727        H  0.05100865  0.24490806  0.79353386     0.36900
H728        H  0.05086494  0.31942967  0.77536652     0.29600
H729        H  0.16329741  0.15144757  0.62644680     0.33900
H730        H  0.13074668  0.25352768  0.57614264     0.36700
H731        H  0.00853013  0.15273230  0.67189216     0.29300
H732        H  0.02912370  0.34805270  0.75224189     0.42200
H733        H  0.18576756  0.28880442  0.78143184     0.32300
H734        H  0.13048577  0.22144566  0.80132537     0.39900
H735        H  0.04812186  0.29107577  0.56220729     0.31700
H736        H  0.18381301  0.32592018  0.68589999     0.31800
H737        H  0.15965772  0.19093059  0.60754192     0.32100
C738        C  0.13339297  0.45993982  0.78981744     0.31000
C739        C  0.13518788  0.03671896  0.78831032     0.31000
C740        C  0.12742407  0.47909374  0.75291772    -0.05200
C741        C  0.10884120  0.47801905  0.80985500    -0.05900
C742        C  0.16363511  0.47923293  0.80669327    -0.05800
C743        C  0.12716355  0.01671507  0.75280718    -0.05200
C744        C  0.11267123  0.01767068  0.81107910    -0.05900
C745        C  0.16633464  0.01933048  0.80329363    -0.05800
C746        C  0.11410842  0.02777538  0.71942332    -0.31200
N747        N  0.10931054  0.49921809  0.69820841     0.15300
C748        C  0.11682843  0.46804574  0.71837934    -0.31200
H749        H  0.11237103  0.43960501  0.70944246     0.17200
C750        C  0.08593667  0.02860567  0.82333381    -0.30200
N751        N  0.06581671  0.49667459  0.82997988     0.14000
C752        C  0.08223166  0.46617614  0.82256959    -0.30200
C753        C  0.19633172  0.03144082  0.80540740    -0.30500
N754        N  0.21188633  0.50051541  0.80852280     0.14500
H755        H  0.20373821  0.06004989  0.80157989     0.17100
C756        C  0.19404230  0.46911326  0.80755675    -0.30500
H757        H  0.20201738  0.44114072  0.80362573     0.17100
H758        H  0.07459454  0.43737603  0.82405636     0.17100
H759        H  0.10797611  0.05608578  0.71133545     0.17200
H760        H  0.07741998  0.05689852  0.82293866     0.17100
C761        C  0.52423307  0.29261917  0.62067317     0.31000
C762        C  0.51994705  0.21616482  0.62204242     0.31000
C763        C  0.55421986  0.27137990  0.63339417    -0.05200
C764        C  0.50089160  0.27591150  0.64433677    -0.05900
C765        C  0.51355039  0.27392320  0.58450085    -0.05800
C766        C  0.55139452  0.23269642  0.63516023    -0.05200
C767        C  0.49926948  0.23645969  0.64493876    -0.05900
C768        C  0.51142424  0.23483080  0.58517695    -0.05800
C769        C  0.57387094  0.22013298  0.66149227    -0.31200
N770        N  0.59125425  0.24959956  0.67466507     0.15300
C771        C  0.58024802  0.28066289  0.65673268    -0.31200
H772        H  0.58893868  0.30844303  0.66316109     0.17200
C773        C  0.47148548  0.22616444  0.65489572    -0.30200
N774        N  0.45590048  0.25728211  0.66143038     0.14000
C775        C  0.47303428  0.28780036  0.65376699    -0.30200
C776        C  0.50102914  0.22349708  0.55088907    -0.30500
N777        N  0.49691230  0.25455973  0.52948952     0.14500
H778        H  0.49634623  0.19489771  0.54244965     0.17100
C779        C  0.50447111  0.28549087  0.54972757    -0.30500
H780        H  0.50319139  0.31415493  0.54008439     0.17100
H781        H  0.46518446  0.31643596  0.65275255     0.17100
H782        H  0.57427921  0.19256823  0.67367482     0.17200
H783        H  0.46247974  0.19785495  0.65467746     0.17100
Zr784      Zr  0.62915211  0.44145225  0.67612015     2.17500
O785        O  0.64428778  0.40456506  0.62794747    -0.50300
O786        O  0.64412404  0.39453240  0.72352935    -0.73500
O787        O  0.68514192  0.44486697  0.67388568    -0.80300
O788        O  0.54388073  0.41797234  0.64024348    -0.82000
O789        O  0.69577357  0.00198108  0.69704189    -0.77700
O790        O  0.58936014  0.39140463  0.66131917    -0.89300
O791        O  0.62442903  0.41070714  0.77341663    -0.75300
O792        O  0.64827291  0.47532887  0.72909533    -0.84700
O793        O  0.58786405  0.44331159  0.71019815    -0.84400
O794        O  0.63641263  0.00513902  0.65707668    -0.71200
O795        O  0.58861976  0.47380495  0.63816765    -0.83300
Zr796      Zr  0.57359676  0.07039116  0.70877916     2.26400
Zr797      Zr  0.65388545  0.03849769  0.71145958     2.06300
Zr798      Zr  0.54732997  0.47553918  0.67297925     2.10000
Zr799      Zr  0.60750090  0.47550120  0.76344474     1.78800
O800        O  0.50821502  0.48871954  0.62205008    -0.92100
O801        O  0.65244844  0.48267760  0.80874946    -0.39900
O802        O  0.56742519  0.50821193  0.72692424    -0.76600
O803        O  0.61360646  0.03810968  0.74724634    -0.95300
O804        O  0.61419897  0.07203702  0.67432445    -0.88600
O805        O  0.55432394  0.03755765  0.65518447    -0.91400
C806        C  0.63822861  0.38775326  0.75545177     1.02300
C807        C  0.56049434  0.38943549  0.64861817     1.15300
C808        C  0.70602427  0.47056894  0.68137158     1.06100
O809        O  0.69166411  0.03683482  0.76532266    -0.93600
O810        O  0.65614888  0.09756923  0.74437865    -0.89300
O811        O  0.60694080  0.11397551  0.74593761    -0.82400
C812        C  0.63585487  0.11882484  0.75465797     1.12700
O813        O  0.61729405  0.01114572  0.57174943    -0.95500
Zr814      Zr  0.59549563  0.03750595  0.62155560     1.88900
O815        O  0.55827322  0.11736963  0.66256720    -0.72200
O816        O  0.68492510  0.07985465  0.67923711    -0.51400
O817        O  0.63508866  0.07976553  0.60529397    -0.96100
O818        O  0.55878341  0.02723482  0.56763807    -0.53300
O819        O  0.56777900  0.09618182  0.60893191    -0.72700
C820        C  0.55660997  0.12014776  0.62841014     0.99600
O821        O  0.54840172  0.11276635  0.74536212    -0.61500
O822        O  0.51397791  0.43160032  0.69938027    -0.56300
O823        O  0.51970024  0.05825459  0.69821434    -0.93000
O824        O  0.50762603  0.50454387  0.70015087    -0.91400
O825        O  0.56798731  0.44468214  0.79225151    -0.91800
O826        O  0.59258326  0.50380139  0.81656586    -0.90600
C827        C  0.50894008  0.03413234  0.71766107     1.18500
H828        H  0.58112090  0.41876027  0.71688735     0.34400
H829        H  0.61952830  0.05078073  0.76966444     0.45300
H830        H  0.53662756  0.04895691  0.64137193     0.38800
H831        H  0.65260102  0.00425178  0.64252652     0.35300
H832        H  0.64752590  0.46807799  0.82966287     0.27100
H833        H  0.70514272  0.08082457  0.69449234     0.33000
H834        H  0.62393956  0.09995294  0.59084878     0.38900
H835        H  0.55510960  0.43103216  0.77280190     0.33400
H836        H  0.49775508  0.42458043  0.67953982     0.32300
H837        H  0.49238634  0.46905719  0.62326115     0.33900
H838        H  0.53997301  0.04011104  0.57192029     0.32900
H839        H  0.57929407  0.02689639  0.80873369     0.36900
H840        H  0.55861015  0.10998713  0.77039844     0.29600
H841        H  0.62769163  0.40824677  0.60760238     0.33900
H842        H  0.61776932  0.03188390  0.55417242     0.36700
H843        H  0.52593147  0.40847020  0.70499704     0.29300
H844        H  0.55338413  0.13856647  0.73789502     0.42200
H845        H  0.69843622  0.01047145  0.76779418     0.32300
H846        H  0.66859865  0.46804224  0.79984104     0.39900
H847        H  0.55344388  0.00023289  0.56846195     0.31700
H848        H  0.68845858  0.06553138  0.65795162     0.31800
H849        H  0.64201609  0.37812871  0.63550033     0.32100
C850        C  0.63060623  0.21248333  0.80123245     0.31000
C851        C  0.63298493  0.28931387  0.79994398     0.31000
C852        C  0.62456811  0.23144370  0.76450225    -0.05200
C853        C  0.60740627  0.23231910  0.82177474    -0.05900
C854        C  0.66156594  0.22993336  0.81749015    -0.05800
C855        C  0.62538019  0.27004295  0.76377401    -0.05200
C856        C  0.60872988  0.27152460  0.82121745    -0.05900
C857        C  0.66304917  0.26941442  0.81643358    -0.05800
C858        C  0.61533793  0.28116779  0.72913169    -0.31200
N859        N  0.60888336  0.25007280  0.70889082     0.15300
C860        C  0.61463503  0.21952728  0.73032239    -0.31200
H861        H  0.60967314  0.19088398  0.72233990     0.17200
C862        C  0.58481888  0.28404085  0.83811361    -0.30200
N863        N  0.56917614  0.25385007  0.84914516     0.14000
C864        C  0.58278550  0.22220157  0.83908285    -0.30200
C865        C  0.69380519  0.27837187  0.81794471    -0.30500
N866        N  0.71080326  0.24650175  0.82144585     0.14500
H867        H  0.70291146  0.30605035  0.81344430     0.17100
C868        C  0.69126480  0.21686330  0.82092947    -0.30500
H869        H  0.69785583  0.18790494  0.81967253     0.17100
H870        H  0.57505339  0.19382055  0.84313631     0.17100
H871        H  0.61059205  0.30964912  0.72022004     0.17200
H872        H  0.57894921  0.31299743  0.84134722     0.17100
C873        C  0.47283817  0.29385796  0.90122857     0.31000
C874        C  0.47350851  0.21747317  0.90417352     0.31000
C875        C  0.44788023  0.27349377  0.87632309    -0.05200
C876        C  0.50226451  0.27558949  0.89100511    -0.05900
C877        C  0.47006421  0.27609692  0.93803671    -0.05800
C878        C  0.44779035  0.23493905  0.87794686    -0.05200
C879        C  0.50256640  0.23633253  0.89296213    -0.05900
C880        C  0.47015567  0.23683995  0.93918702    -0.05800
C881        C  0.42486807  0.22245863  0.85184965    -0.31200
N882        N  0.41162839  0.25294108  0.83445915     0.15300
C883        C  0.42563498  0.28415379  0.84914713    -0.31200
H884        H  0.42116325  0.31249676  0.83969997     0.17200
C885        C  0.52776638  0.22452615  0.87831073    -0.30200
N886        N  0.54291834  0.25501125  0.86718705     0.14000
C887        C  0.52740087  0.28632429  0.87463306    -0.30200
C888        C  0.47825985  0.22596595  0.97421720    -0.30500
N889        N  0.48277928  0.25702411  0.99465902     0.14500
H890        H  0.48320206  0.19761438  0.98348553     0.17100
C891        C  0.47877542  0.28776101  0.97284246    -0.30500
H892        H  0.48410661  0.31631069  0.98103323     0.17100
H893        H  0.53295808  0.31467915  0.86723048     0.17100
H894        H  0.41930975  0.19360694  0.84502405     0.17200
H895        H  0.53371492  0.19569263  0.87462296     0.17100
Zr896      Zr  0.37257095  0.44566596  0.83621647     2.17500
O897        O  0.35055441  0.41938761  0.88673111    -0.50300
O898        O  0.35626292  0.39560128  0.79241585    -0.73500
O899        O  0.31663696  0.45515537  0.82832322    -0.80300
O900        O  0.45342433  0.40989719  0.87803497    -0.82000
O901        O  0.30962416  0.01132811  0.80126055    -0.77700
O902        O  0.40278751  0.39454414  0.87013301    -0.89300
O903        O  0.37432677  0.40855928  0.74021898    -0.75300
O904        O  0.36141228  0.47461145  0.77846051    -0.84700
O905        O  0.41600380  0.43579283  0.80721086    -0.84400
O906        O  0.36776278  0.01225315  0.84714334    -0.71200
O907        O  0.41459438  0.47665949  0.87309190    -0.83300
Zr908      Zr  0.44163577  0.06097549  0.79570639     2.26400
Zr909      Zr  0.35666597  0.04095801  0.78856335     2.06300
Zr910      Zr  0.45820946  0.46549301  0.84395703     2.10000
Zr911      Zr  0.40483420  0.46442286  0.74942647     1.78800
O912        O  0.49058085  0.47458417  0.90121382    -0.92100
O913        O  0.37075799  0.47861646  0.69429016    -0.39900
O914        O  0.44818262  0.49229288  0.78467968    -0.76600
O915        O  0.39987646  0.03154422  0.75869962    -0.95300
O916        O  0.39826585  0.07195464  0.82424511    -0.88600
O917        O  0.45279223  0.03321476  0.85397006    -0.91400
C918        C  0.35959980  0.38798156  0.75983389     1.02300
C919        C  0.43131675  0.38783487  0.88199719     1.15300
C920        C  0.29807566  0.48059691  0.81387824     1.06100
O921        O  0.32245272  0.03751234  0.73194656    -0.93600
O922        O  0.36423871  0.09888595  0.75368539    -0.89300
O923        O  0.41470660  0.11374083  0.76765657    -0.82400
C924        C  0.38772508  0.12041369  0.75192631     1.12700
O925        O  0.38107461  0.03383379  0.93148581    -0.95500
Zr926      Zr  0.40988007  0.04456916  0.88198668     1.88900
O927        O  0.45883323  0.11216816  0.83266449    -0.72200
O928        O  0.32659566  0.08835332  0.81302652    -0.51400
O929        O  0.37609294  0.09617163  0.88992699    -0.96100
O930        O  0.44290594  0.03377811  0.93866662    -0.53300
O931        O  0.44284830  0.10179270  0.88659489    -0.72700
C932        C  0.45739435  0.12085497  0.86493521     0.99600
O933        O  0.45853367  0.08336438  0.74028165    -0.61500
O934        O  0.48864886  0.41584358  0.82329804    -0.56300
O935        O  0.49523502  0.05518933  0.82105167    -0.93000
O936        O  0.50599395  0.48710043  0.82736148    -0.91400
O937        O  0.43772469  0.41478326  0.73396742    -0.91800
O938        O  0.43250226  0.48169456  0.70033898    -0.90600
C939        C  0.50907787  0.02498935  0.81642361     1.18500
H940        H  0.41963364  0.40934270  0.80495014     0.34400
H941        H  0.39683181  0.04373241  0.73553365     0.45300
H942        H  0.47017108  0.04364046  0.86934431     0.38800
H943        H  0.35034170  0.01481578  0.85955930     0.35300
H944        H  0.37136630  0.45614677  0.67928811     0.27100
H945        H  0.34167685  0.10769544  0.82283636     0.33000
H946        H  0.38684611  0.11029126  0.91054179     0.38900
H947        H  0.45839455  0.42162617  0.74617633     0.33400
H948        H  0.50281882  0.40777178  0.84473458     0.32300
H949        H  0.50884645  0.45922223  0.89978463     0.33900
H950        H  0.46361361  0.04145207  0.93418322     0.32900
H951        H  0.44060069  0.00758907  0.70274152     0.36900
H952        H  0.44069867  0.08154672  0.72115135     0.29600
H953        H  0.33475833  0.40120211  0.87617995     0.33900
H954        H  0.36811204  0.01151916  0.92454951     0.36700
H955        H  0.47447587  0.39430037  0.81776979     0.29300
H956        H  0.46312778  0.11050722  0.74309096     0.42200
H957        H  0.30379981  0.05072181  0.73628637     0.32300
H958        H  0.35001554  0.47804716  0.70119661     0.39900
H959        H  0.44390779  0.00615446  0.94129373     0.31700
H960        H  0.31471778  0.10052067  0.79180113     0.31800
H961        H  0.33901116  0.44010919  0.89546492     0.32100
C962        C  0.35993645  0.21592482  0.71359340     0.31000
C963        C  0.35988787  0.29230649  0.71478345     0.31000
C964        C  0.36542538  0.23371931  0.75083260    -0.05200
C965        C  0.38430623  0.23585537  0.69393247    -0.05900
C966        C  0.32979242  0.23424491  0.69651077    -0.05800
C967        C  0.36566129  0.27250841  0.75110856    -0.05200
C968        C  0.38441649  0.27493060  0.69475050    -0.05900
C969        C  0.32982004  0.27378831  0.69708771    -0.05800
C970        C  0.38126751  0.28354044  0.78336924    -0.31200
N971        N  0.39005027  0.25270108  0.80314064     0.15300
C972        C  0.38060466  0.22205508  0.78366150    -0.31200
H973        H  0.38712611  0.19374959  0.79139546     0.17200
C974        C  0.41072094  0.28733548  0.68160524    -0.30200
N975        N  0.42631456  0.25700646  0.67243289     0.14000
C976        C  0.41028828  0.22558667  0.67999081    -0.30200
C977        C  0.29986327  0.28415657  0.69720726    -0.30500
N978        N  0.28167004  0.25318041  0.69565827     0.14500
H979        H  0.29228401  0.31216927  0.70186651     0.17100
C980        C  0.29972432  0.22265961  0.69616069    -0.30500
H981        H  0.29220029  0.19420431  0.70037270     0.17100
H982        H  0.41772821  0.19712358  0.67759188     0.17100
H983        H  0.38866007  0.31186792  0.79000617     0.17200
H984        H  0.41872246  0.31606333  0.68086483     0.17100
C985        C  0.34750450  0.35180677  0.74444664    -0.15400
C986        C  0.36062539  0.33472692  0.71861605    -0.30600
H987        H  0.33223233  0.33577638  0.75907582     0.13600
H988        H  0.37699430  0.35023885  0.70518313     0.14200
C989        C  0.38557371  0.15650558  0.73213749    -0.15400
C990        C  0.35997672  0.17327710  0.71661328    -0.30600
H991        H  0.40654658  0.17318329  0.73559521     0.13600
H992        H  0.33854026  0.15769137  0.71240881     0.14200
C993        C  0.46816502  0.33600712  0.89792100    -0.15400
C994        C  0.44014090  0.35124317  0.89939133    -0.30600
H995        H  0.48613460  0.35277169  0.88859374     0.13600
H996        H  0.42202338  0.33370764  0.90747119     0.14200
C997        C  0.47071800  0.17523207  0.90498782    -0.15400
C998        C  0.47277796  0.15664928  0.87507402    -0.30600
H999        H  0.46140703  0.16146334  0.92688523     0.13600
H1000       H  0.48179671  0.17164811  0.85358286     0.14200
C1001       C  0.51043311  0.04214349  0.75529077    -0.15400
C1002       C  0.51291155  0.01530421  0.78015940    -0.30600
H1003       H  0.51041162  0.07116310  0.76327655     0.13600
H1004       H  0.51494285  0.98607487  0.77326756     0.14200
C1005       C  0.64720755  0.35015734  0.77125487    -0.15400
C1006       C  0.63266730  0.33222845  0.79595091    -0.30600
H1007       H  0.66257991  0.33402147  0.75757202     0.13600
H1008       H  0.61630621  0.34761208  0.80876753     0.14200
C1009       C  0.64628647  0.15238933  0.77598964    -0.15400
C1010       C  0.62846877  0.17009309  0.79683076    -0.30600
H1011       H  0.66638892  0.16659155  0.76879944     0.13600
H1012       H  0.60852115  0.15570812  0.80430549     0.14200
C1013       C  0.52987695  0.33505907  0.61975187    -0.15400
C1014       C  0.54457582  0.35264589  0.64888106    -0.30600
H1015       H  0.52666626  0.34977591  0.59417267     0.13600
H1016       H  0.54747853  0.33783165  0.67440788     0.14200
C1017       C  0.52099993  0.17366595  0.62508583    -0.15400
C1018       C  0.54224768  0.15422417  0.61075020    -0.30600
H1019       H  0.50958749  0.16039877  0.64562157     0.13600
H1020       H  0.55310521  0.16696460  0.58950017     0.14200
C1021       C  0.24425834  0.50330840  0.80585751    -0.15400
C1022       C  0.26455867  0.47543441  0.81529191    -0.30600
H1023       H  0.25278430  0.53015211  0.79737417     0.13600
H1024       H  0.25669982  0.44902809  0.82546728     0.14200
C1025       C  0.23036165  0.22450651  0.69145270    -0.15400
C1026       C  0.24959418  0.25401005  0.69905058    -0.30600
H1027       H  0.23874798  0.19858163  0.68194659     0.13600
H1028       H  0.24043146  0.28044568  0.70647652     0.14200
C1029       C  0.10852086  0.39963542  0.76957522    -0.15400
C1030       C  0.13360567  0.41725814  0.78627574    -0.30600
H1031       H  0.08759459  0.41578679  0.76447072     0.13600
H1032       H  0.15500445  0.40230360  0.79215167     0.14200
C1033       C  0.14484771  0.09741862  0.75654870    -0.15400
C1034       C  0.13297015  0.07924931  0.78332111    -0.30600
H1035       H  0.16072450  0.08265983  0.74241972     0.13600
H1036       H  0.11659507  0.09359862  0.79697422     0.14200
C1037       C  0.03314357  0.42199509  0.59465350    -0.15400
C1038       C  0.03190902  0.40353938  0.62513806    -0.30600
H1039       H  0.04223457  0.40866494  0.57280679     0.13600
H1040       H  0.02268161  0.41799544  0.64635022     0.14200
C1041       C  0.02935024  0.07938251  0.60358277    -0.15400
C1042       C  0.05709272  0.09604830  0.60148010    -0.30600
H1043       H  0.01137742  0.09523007  0.61306349     0.13600
H1044       H  0.07538276  0.07941474  0.59366107     0.14200
C1045       C  0.75749700  0.49392014  0.67384697    -0.15400
C1046       C  0.73811442  0.46414106  0.67478872    -0.30600
H1047       H  0.74433842  0.02147473  0.68382741     0.13600
H1048       H  0.74577591  0.43578224  0.67161250     0.14200
C1049       C  0.76087743  0.21456210  0.82009691    -0.15400
C1050       C  0.74334576  0.24595591  0.81964582    -0.30600
H1051       H  0.75136423  0.18699598  0.82434940     0.13600
H1052       H  0.75412491  0.27313544  0.81669143     0.14200
C1053       C  0.98590342  0.27722187  0.72416465    -0.15400
C1054       C  0.98212709  0.25538386  0.69577488    -0.30600
H1055       H  0.98830693  0.30706436  0.72039409     0.13600
H1056       H  0.97723270  0.22564342  0.69793517     0.14200
C1057       C  0.84759859  0.08814492  0.72472715    -0.15400
C1058       C  0.86309888  0.07183897  0.70050522    -0.30600
H1059       H  0.83216475  0.07114622  0.73828090     0.13600
H1060       H  0.87973824  0.08822091  0.68827546     0.14200
C1061       C  0.85235871  0.39358124  0.71556221    -0.15400
C1062       C  0.87010910  0.41205633  0.69474741    -0.30600
H1063       H  0.83308136  0.40765287  0.72410357     0.13600
H1064       H  0.88924762  0.39796582  0.68586533     0.14200
C1065       C  0.96364067  0.07478695  0.87530053    -0.15400
C1066       C  0.95013892  0.09113932  0.84472395    -0.30600
H1067       H  0.96512504  0.09037019  0.90002498     0.13600
H1068       H  0.94837798  0.07585886  0.81981429     0.14200
C1069       C  0.97047798  0.41125314  0.88584768    -0.15400
C1070       C  0.97007947  0.39113349  0.85612170    -0.30600
H1071       H  0.95953291  0.39933880  0.90741232     0.13600
H1072       H  0.97880943  0.40464174  0.83367708     0.14200
C1073       C  0.95783430  0.53091599  0.38147203     0.31000
C1074       C  0.96857016  0.95609172  0.38390970     0.31000
C1075       C  0.92884360  0.50766685  0.36730034    -0.05200
C1076       C  0.98371928  0.51431592  0.36194321    -0.05900
C1077       C  0.96560750  0.51449362  0.41929779    -0.05800
C1078       C  0.93801815  0.97102580  0.36518060    -0.05200
C1079       C  0.99224328  0.97606836  0.36357450    -0.05900
C1080       C  0.97303483  0.97667603  0.41967566    -0.05800
C1081       C  0.91726101  0.95765341  0.33686787    -0.31200
N1082       N  0.90029519  0.98659030  0.32167187     0.15300
C1083       C  0.90320709  0.51549455  0.34315833    -0.31200
H1084       H  0.89343690  0.54268034  0.33692275     0.17200
C1085       C  0.01976288  0.96608582  0.35303641    -0.30200
N1086       N  0.03470194  0.99747525  0.34358594     0.14000
C1087       C  0.01101320  0.52689428  0.35054997    -0.30200
C1088       C  0.98602710  0.96731379  0.45369162    -0.30500
N1089       N  0.99220983  0.49950102  0.47183676     0.14500
H1090       H  0.99285200  0.93940984  0.46269039     0.17100
C1091       C  0.98109528  0.52867803  0.45080066    -0.30500
H1092       H  0.98603623  0.55790501  0.45664413     0.17100
H1093       H  0.01789805  0.55590188  0.34817617     0.17100
H1094       H  0.91724774  0.93002397  0.32548096     0.17200
H1095       H  0.02893485  0.93807893  0.35434728     0.17100
Zr1096     Zr  0.86466474  0.68739072  0.31402439     2.17500
O1097       O  0.84569669  0.65926913  0.36567815    -0.50300
O1098       O  0.84864101  0.63772174  0.27004137    -0.73500
O1099       O  0.80960598  0.70028727  0.30920473    -0.80300
O1100       O  0.93807666  0.65390240  0.36405411    -0.82000
O1101       O  0.80119908  0.75883058  0.28486337    -0.77700
O1102       O  0.89483126  0.63078224  0.33319733    -0.89300
O1103       O  0.87414793  0.64756806  0.22270073    -0.75300
O1104       O  0.85405818  0.71797478  0.25685856    -0.84700
O1105       O  0.90924767  0.67789651  0.28667932    -0.84400
O1106       O  0.85909778  0.75363500  0.32576975    -0.71200
O1107       O  0.90539837  0.71677457  0.35475214    -0.83300
Zr1108     Zr  0.93472175  0.79771927  0.27904804     2.26400
Zr1109     Zr  0.84893382  0.78385145  0.26797715     2.06300
Zr1110     Zr  0.94979681  0.70572548  0.32737809     2.10000
Zr1111     Zr  0.89863641  0.70816154  0.23004832     1.78800
O1112       O  0.98536452  0.72180000  0.38072719    -0.92100
O1113       O  0.85907909  0.71995315  0.17903576    -0.39900
O1114       O  0.93484223  0.73444545  0.27254313    -0.76600
O1115       O  0.89250075  0.77315449  0.23872750    -0.95300
O1116       O  0.89109425  0.81255155  0.30568952    -0.88600
O1117       O  0.94492009  0.77121278  0.33772644    -0.91400
C1118       C  0.85697341  0.62777507  0.24017693     1.02300
C1119       C  0.92191515  0.62653857  0.35069337     1.15300
C1120       C  0.79222241  0.72848829  0.29924624     1.06100
O1121       O  0.81386961  0.78021060  0.21193847    -0.93600
O1122       O  0.86104429  0.84009948  0.23339711    -0.89300
O1123       O  0.91236649  0.85004960  0.24599704    -0.82400
C1124       C  0.88584012  0.85870925  0.23047189     1.12700
O1125       O  0.87368360  0.77098109  0.41381514    -0.95500
Zr1126     Zr  0.90081411  0.78399113  0.36320844     1.88900
O1127       O  0.95324340  0.84818073  0.31628056    -0.72200
O1128       O  0.81957121  0.83488053  0.28778459    -0.51400
O1129       O  0.86366805  0.83201783  0.37101837    -0.96100
O1130       O  0.93430525  0.77327846  0.41957844    -0.53300
O1131       O  0.93437507  0.84127375  0.36878783    -0.72700
C1132       C  0.95085813  0.85846904  0.34781930     0.99600
O1133       O  0.96172437  0.81869856  0.23067467    -0.61500
O1134       O  0.98337622  0.65399371  0.31834994    -0.56300
O1135       O  0.98596311  0.77887064  0.30247657    -0.93000
O1136       O  0.99307799  0.71823854  0.29834922    -0.91400
O1137       O  0.93496685  0.66588261  0.20925575    -0.91800
O1138       O  0.92272828  0.72891240  0.17909443    -0.90600
C1139       C  0.99724542  0.75159674  0.28820421     1.18500
H1140       H  0.91375745  0.65214695  0.28214704     0.34400
H1141       H  0.89058493  0.78557224  0.21569316     0.45300
H1142       H  0.96239611  0.78155732  0.35300909     0.38800
H1143       H  0.84186880  0.75663194  0.33842811     0.35300
H1144       H  0.86070515  0.69888635  0.16261502     0.27100
H1145       H  0.83502677  0.85408753  0.29693726     0.33000
H1146       H  0.87475365  0.85615860  0.36970596     0.38900
H1147       H  0.94500395  0.65300210  0.23115070     0.33400
H1148       H  0.99046358  0.64346296  0.34248288     0.32300
H1149       H  0.00552638  0.72400495  0.37238493     0.33900
H1150       H  0.95390940  0.78576035  0.41660652     0.32900
H1151       H  0.91512317  0.75452342  0.17311380     0.36900
H1152       H  0.94684870  0.81582956  0.20852807     0.29600
H1153       H  0.82759463  0.64415120  0.35564555     0.33900
H1154       H  0.87836291  0.79246812  0.43015299     0.36700
H1155       H  0.96992399  0.63438395  0.30590216     0.29300
H1156       H  0.96471822  0.84610524  0.23351841     0.42200
H1157       H  0.82523977  0.79138142  0.19363375     0.32300
H1158       H  0.83938165  0.71542842  0.18793909     0.39900
H1159       H  0.93880868  0.74615874  0.41972038     0.31700
H1160       H  0.80861952  0.84599109  0.26543220     0.31800
H1161       H  0.83732471  0.68047715  0.37770496     0.32100
C1162       C  0.86106259  0.95334222  0.19270677     0.31000
C1163       C  0.86179166  0.52979981  0.19826690     0.31000
C1164       C  0.86871674  0.97041257  0.23014642    -0.05200
C1165       C  0.88453170  0.97321291  0.17154666    -0.05900
C1166       C  0.83058858  0.97213850  0.17807787    -0.05800
C1167       C  0.86544150  0.50846913  0.23391497    -0.05200
C1168       C  0.88674751  0.51198048  0.17921741    -0.05900
C1169       C  0.83186582  0.51294008  0.17803491    -0.05800
C1170       C  0.87443279  0.51778072  0.26896791    -0.31200
N1171       N  0.88444808  0.98743669  0.28632879     0.15300
C1172       C  0.87796989  0.95740051  0.26468621    -0.31200
H1173       H  0.88125438  0.92848640  0.27307322     0.17200
C1174       C  0.91274794  0.52402306  0.16553966    -0.30200
N1175       N  0.92398753  0.99486004  0.14525176     0.14000
C1176       C  0.90894267  0.96317059  0.15426188    -0.30200
C1177       C  0.80195371  0.52436534  0.17538558    -0.30500
N1178       N  0.78250083  0.99166330  0.17492251     0.14500
H1179       H  0.79474141  0.55251603  0.18015595     0.17100
C1180       C  0.80026182  0.96076476  0.17624805    -0.30500
H1181       H  0.79218359  0.93234238  0.17931100     0.17100
H1182       H  0.91585038  0.93481249  0.15001829     0.17100
H1183       H  0.88046252  0.54573745  0.27837615     0.17200
H1184       H  0.92075087  0.55271342  0.16454308     0.17100
C1185       C  0.02396728  0.53527477  0.10241471     0.31000
C1186       C  0.02247343  0.96066915  0.09598941     0.31000
C1187       C  0.05167698  0.51546836  0.12307174    -0.05200
C1188       C  0.99696319  0.51560105  0.11780603    -0.05900
C1189       C  0.02165282  0.51807543  0.06485996    -0.05800
C1190       C  0.04797329  0.97833543  0.12224509    -0.05200
C1191       C  0.99317213  0.97845955  0.10666792    -0.05900
C1192       C  0.02611712  0.98071909  0.06093715    -0.05800
C1193       C  0.06908621  0.96585528  0.15037166    -0.31200
N1194       N  0.08125341  0.99628785  0.16856296     0.15300
C1195       C  0.07142665  0.52592261  0.15272162    -0.31200
H1196       H  0.07319120  0.55371631  0.16383381     0.17200
C1197       C  0.96692059  0.96604244  0.11960891    -0.30200
N1198       N  0.95128195  0.99625446  0.12906492     0.14000
C1199       C  0.97127325  0.52600187  0.13236878    -0.30200
C1200       C  0.01505089  0.96975007  0.02692131    -0.30500
N1201       N  0.00637215  0.49840552  0.00922874     0.14500
H1202       H  0.00891946  0.94126596  0.01923610     0.17100
C1203       C  0.01151316  0.52954831  0.02998904    -0.30500
H1204       H  0.00646508  0.55799768  0.02105189     0.17100
H1205       H  0.96460729  0.55445951  0.13659203     0.17100
H1206       H  0.07367939  0.93707507  0.15839394     0.17200
H1207       H  0.96045396  0.93706186  0.12309960     0.17100
Zr1208     Zr  0.12034663  0.69107210  0.17086447     2.17500
O1209       O  0.14596773  0.66363494  0.12456465    -0.50300
O1210       O  0.13414360  0.64028811  0.21573289    -0.73500
O1211       O  0.17559697  0.70274549  0.18041555    -0.80300
O1212       O  0.04074308  0.65217869  0.12752566    -0.82000
O1213       O  0.18498212  0.75953723  0.20707189    -0.77700
O1214       O  0.09161204  0.64007951  0.13494320    -0.89300
O1215       O  0.11141073  0.65021146  0.26484398    -0.75300
O1216       O  0.13018681  0.71986932  0.22839561    -0.84700
O1217       O  0.07552290  0.68021111  0.19716574    -0.84400
O1218       O  0.12861227  0.75787762  0.16107537    -0.71200
O1219       O  0.08083429  0.72210848  0.13018050    -0.83300
Zr1220     Zr  0.05302865  0.80402237  0.20685730     2.26400
Zr1221     Zr  0.13748010  0.78615678  0.21959996     2.06300
Zr1222     Zr  0.03578697  0.71018785  0.15665825     2.10000
Zr1223     Zr  0.08555697  0.70867618  0.25486625     1.78800
O1224       O  0.00892440  0.71656158  0.09587461    -0.92100
O1225       O  0.12251084  0.71567137  0.30910504    -0.39900
O1226       O  0.04693469  0.73781960  0.21450315    -0.76600
O1227       O  0.09292612  0.77488640  0.24770888    -0.95300
O1228       O  0.09752749  0.81716112  0.18047099    -0.88600
O1229       O  0.04366268  0.77630375  0.14870818    -0.91400
C1230       C  0.12787423  0.63087981  0.24706556     1.02300
C1231       C  0.06325982  0.63170194  0.12325186     1.15300
C1232       C  0.19357264  0.72958031  0.19300963     1.06100
O1233       O  0.16785834  0.77697477  0.27820122    -0.93600
O1234       O  0.13045048  0.84429118  0.25256426    -0.89300
O1235       O  0.07907226  0.85117773  0.24547942    -0.82400
C1236       C  0.10616158  0.86172995  0.25794008     1.12700
O1237       O  0.11653924  0.77426793  0.07453381    -0.95500
Zr1238     Zr  0.08807082  0.78927336  0.12292739     1.88900
O1239       O  0.03968842  0.85509961  0.16766026    -0.72200
O1240       O  0.17088812  0.83584894  0.20230922    -0.51400
O1241       O  0.12552448  0.83861622  0.11652528    -0.96100
O1242       O  0.05774766  0.78406942  0.06380913    -0.53300
O1243       O  0.05477717  0.84517552  0.11388299    -0.72700
C1244       C  0.04045587  0.86383177  0.13521340     0.99600
O1245       O  0.02234582  0.84175401  0.24245464    -0.61500
O1246       O  0.00090442  0.66469765  0.17822666    -0.56300
O1247       O  0.99980692  0.79024553  0.18508732    -0.93000
O1248       O  0.98675238  0.73473699  0.16379577    -0.91400
O1249       O  0.04608725  0.66402333  0.26683055    -0.91800
O1250       O  0.06099678  0.72473949  0.30616296    -0.90600
C1251       C  0.98848035  0.75784207  0.18914167     1.18500
H1252       H  0.07128994  0.65372599  0.19940678     0.34400
H1253       H  0.09520533  0.78635677  0.27099721     0.45300
H1254       H  0.02619291  0.78666821  0.13353328     0.42800
H1255       H  0.14653158  0.76127093  0.14951669     0.35300
H1256       H  0.11766599  0.69494097  0.32509865     0.27100
H1257       H  0.19007904  0.83353959  0.21935409     0.33000
H1258       H  0.11417497  0.86233938  0.11674312     0.38900
H1259       H  0.02729698  0.67243182  0.25140063     0.33400
H1260       H  0.98745199  0.65611285  0.15645919     0.32300
H1261       H  0.02468386  0.71218992  0.08032815     0.33900
H1262       H  0.06040651  0.80858978  0.05200504     0.32900
H1263       H  0.06499946  0.75188706  0.30977831     0.36900
H1264       H  0.03163802  0.84073010  0.26797803     0.29600
H1265       H  0.16135987  0.64641154  0.13735524     0.33900
H1266       H  0.12643620  0.75008224  0.08184524     0.36700
H1267       H  0.01359233  0.64268107  0.18631595     0.29300
H1268       H  0.02419760  0.86825148  0.23482096     0.42200
H1269       H  0.15556107  0.78780376  0.29536167     0.32300
H1270       H  0.14239742  0.70872696  0.30210068     0.39900
H1271       H  0.03622524  0.78390116  0.06821225     0.31700
H1272       H  0.17632944  0.82803063  0.17900287     0.31800
H1273       H  0.15796569  0.68429665  0.11545346     0.32100
C1274       C  0.13128228  0.95996952  0.29276502     0.31000
C1275       C  0.12572343  0.53413640  0.29349875     0.31000
C1276       C  0.12257743  0.97767524  0.25551418    -0.05200
C1277       C  0.10820360  0.97875892  0.31457615    -0.05900
C1278       C  0.16196209  0.98005361  0.30633389    -0.05800
C1279       C  0.11878573  0.51419115  0.25783047    -0.05200
C1280       C  0.10186461  0.51578647  0.31482081    -0.05900
C1281       C  0.15616175  0.51629092  0.31022944    -0.05800
C1282       C  0.10773854  0.52534766  0.22376801    -0.31200
N1283       N  0.10024603  0.99607180  0.20184632     0.15300
C1284       C  0.10890317  0.96545919  0.22231583    -0.31200
H1285       H  0.10352705  0.93680499  0.21461606     0.17200
C1286       C  0.07483166  0.52748617  0.32602993    -0.30200
N1287       N  0.06449620  0.99815803  0.33287092     0.14000
C1288       C  0.08122371  0.96745747  0.32684113    -0.30200
C1289       C  0.18621513  0.52794644  0.31171825    -0.30500
N1290       N  0.21003637  0.00125603  0.30763328     0.14500
H1291       H  0.19379276  0.55643931  0.30764932     0.17100
C1292       C  0.19234651  0.96981080  0.30781647    -0.30500
H1293       H  0.20049806  0.94162283  0.30548986     0.17100
H1294       H  0.07349018  0.93875938  0.32878823     0.17100
H1295       H  0.10282281  0.55381976  0.21508796     0.17200
H1296       H  0.06672357  0.55598639  0.32546022     0.17100
C1297       C  0.51773188  0.79261763  0.12224425     0.31000
C1298       C  0.51428547  0.71613038  0.12279925     0.31000
C1299       C  0.54809250  0.77179094  0.13378393    -0.05200
C1300       C  0.49525715  0.77491724  0.14646151    -0.05900
C1301       C  0.50661227  0.77437297  0.08596843    -0.05800
C1302       C  0.54573163  0.73302864  0.13557962    -0.05200
C1303       C  0.49401095  0.73555224  0.14655719    -0.05900
C1304       C  0.50490826  0.73526101  0.08622843    -0.05800
C1305       C  0.56860569  0.72100902  0.16184545    -0.31200
N1306       N  0.58600554  0.75084654  0.17416757     0.15300
C1307       C  0.57446709  0.78157166  0.15616874    -0.31200
H1308       H  0.58317190  0.80950223  0.16185760     0.17200
C1309       C  0.46750905  0.72432909  0.15908119    -0.30200
N1310       N  0.45222982  0.75504671  0.16724273     0.14000
C1311       C  0.46840120  0.78607792  0.15864504    -0.30200
C1312       C  0.49626537  0.72416520  0.05148126    -0.30500
N1313       N  0.49281706  0.75536952  0.03018266     0.14500
H1314       H  0.49345870  0.69551489  0.04250008     0.17100
C1315       C  0.49909848  0.78617639  0.05096705    -0.30500
H1316       H  0.49908847  0.81483631  0.04135845     0.17100
H1317       H  0.46044082  0.81459538  0.15887702     0.17100
H1318       H  0.56958203  0.69354639  0.17429974     0.17200
H1319       H  0.45893757  0.69584403  0.15947546     0.17100
Zr1320     Zr  0.62098256  0.94377967  0.17481782     2.17500
O1321       O  0.63158335  0.90780836  0.12371041    -0.50300
O1322       O  0.63765691  0.89695489  0.22091921    -0.73500
O1323       O  0.67715339  0.94643042  0.17378812    -0.80300
O1324       O  0.53452572  0.91774242  0.14564525    -0.82000
O1325       O  0.69416822  0.50603915  0.19080986    -0.77700
O1326       O  0.58176238  0.89282807  0.16135604    -0.89300
O1327       O  0.62029472  0.91333793  0.27226125    -0.75300
O1328       O  0.64057893  0.97703850  0.22806228    -0.84700
O1329       O  0.58022656  0.94555096  0.20955613    -0.84400
O1330       O  0.63363646  0.50820295  0.15422237    -0.71200
O1331       O  0.58013699  0.97638644  0.13785654    -0.83300
Zr1332     Zr  0.57413248  0.57436193  0.20874380     2.26400
Zr1333     Zr  0.65361087  0.54287732  0.20696555     2.06300
Zr1334     Zr  0.53946367  0.97819349  0.17341481     2.10000
Zr1335     Zr  0.60030120  0.97686585  0.26298468     1.78800
O1336       O  0.50245349  0.98904202  0.11994814    -0.92100
O1337       O  0.64401054  0.98591724  0.30955230    -0.39900
O1338       O  0.56023682  0.01035576  0.22732473    -0.76600
O1339       O  0.61573973  0.54357705  0.24577537    -0.95300
O1340       O  0.61257034  0.57519296  0.17133306    -0.88600
O1341       O  0.55140161  0.54161942  0.15653654    -0.91400
C1342       C  0.63346417  0.89057852  0.25343231     1.02300
C1343       C  0.55246028  0.88994272  0.15127593     1.15300
C1344       C  0.69844960  0.97119075  0.18316033     1.06100
O1345       O  0.69739092  0.54137540  0.25436279    -0.93600
O1346       O  0.65771779  0.60135479  0.24107831    -0.89300
O1347       O  0.60886158  0.61741013  0.24465471    -0.82400
C1348       C  0.63780507  0.62250590  0.25226494     1.12700
O1349       O  0.61011720  0.51173000  0.06928490    -0.95500
Zr1350     Zr  0.59103167  0.53956097  0.12015700     1.88900
O1351       O  0.55164807  0.61662720  0.16108222    -0.72200
O1352       O  0.67986095  0.58440146  0.16951000    -0.51400
O1353       O  0.62577119  0.58005332  0.09238045    -0.96100
O1354       O  0.55018022  0.52584821  0.07114621    -0.53300
O1355       O  0.56499335  0.59912932  0.10807450    -0.72700
C1356       C  0.55160188  0.62108480  0.12730358     0.99600
O1357       O  0.54880041  0.62593483  0.23436836    -0.61500
O1358       O  0.50483366  0.93798878  0.20197956    -0.56300
O1359       O  0.53168877  0.55881653  0.23755154    -0.93000
O1360       O  0.49974887  0.00912769  0.19913811    -0.91400
O1361       O  0.56245082  0.94026894  0.28975616    -0.91800
O1362       O  0.58247403  0.00405927  0.31492163    -0.90600
C1363       C  0.51039782  0.53423733  0.23458696     1.18500
H1364       H  0.57355114  0.92093498  0.21626140     0.34400
H1365       H  0.62257381  0.55605462  0.26806084     0.45300
H1366       H  0.53272485  0.55260205  0.14468773     0.38800
H1367       H  0.64911125  0.50667677  0.13876739     0.35300
H1368       H  0.64057862  0.96778856  0.32865516     0.27100
H1369       H  0.66775181  0.60768869  0.16709577     0.33000
H1370       H  0.64648576  0.57199210  0.10305734     0.38900
H1371       H  0.54847122  0.92974858  0.26932824     0.33400
H1372       H  0.48851830  0.93032519  0.18249008     0.32300
H1373       H  0.48248354  0.98208620  0.12721736     0.33900
H1374       H  0.53352387  0.54326787  0.07418918     0.32900
H1375       H  0.58870172  0.53474377  0.31228457     0.36900
H1376       H  0.55586524  0.62522219  0.26050527     0.29600
H1377       H  0.64856371  0.89103090  0.13335224     0.33900
H1378       H  0.61768648  0.48680512  0.07806153     0.36700
H1379       H  0.51623164  0.91473364  0.20908199     0.29300
H1380       H  0.55774907  0.64935967  0.22582654     0.42200
H1381       H  0.71430532  0.55357150  0.24386460     0.32300
H1382       H  0.66162023  0.97576685  0.29946869     0.39900
H1383       H  0.54222477  0.50082887  0.07699843     0.31700
H1384       H  0.69918113  0.59147319  0.18480136     0.31800
H1385       H  0.64076515  0.92616467  0.10842186     0.32100
C1386       C  0.63197682  0.71580701  0.29902632     0.31000
C1387       C  0.63156662  0.79241224  0.29730191     0.31000
C1388       C  0.62490964  0.73425050  0.26213011    -0.05200
C1389       C  0.60822143  0.73441978  0.31970378    -0.05900
C1390       C  0.66252234  0.73499266  0.31486539    -0.05800
C1391       C  0.62441254  0.77285292  0.26120713    -0.05200
C1392       C  0.60831791  0.77355617  0.31893382    -0.05900
C1393       C  0.66239779  0.77463927  0.31357778    -0.05800
C1394       C  0.61182032  0.78341033  0.22720011    -0.31200
N1395       N  0.60511395  0.75201629  0.20744280     0.15300
C1396       C  0.61299770  0.72179486  0.22862425    -0.31200
H1397       H  0.60792465  0.69300939  0.22122026     0.17200
C1398       C  0.58377617  0.78520495  0.33498320    -0.30200
N1399       N  0.56864463  0.75451002  0.34563056     0.14000
C1400       C  0.58335581  0.72336145  0.33625615    -0.30200
C1401       C  0.69217255  0.78565035  0.31098787    -0.30500
N1402       N  0.71034890  0.75514328  0.31192908     0.14500
H1403       H  0.69939782  0.81378246  0.30484365     0.17100
C1404       C  0.69246035  0.72426619  0.31417068    -0.30500
H1405       H  0.69987610  0.69585955  0.31149839     0.17100
H1406       H  0.57600595  0.69473423  0.33986144     0.17100
H1407       H  0.60525904  0.81156821  0.21879103     0.17200
H1408       H  0.57682242  0.81389180  0.33734428     0.17100
C1409       C  0.47184355  0.79277183  0.39857927     0.31000
C1410       C  0.47278332  0.71605505  0.39933981     0.31000
C1411       C  0.44495101  0.77272552  0.37634619    -0.05200
C1412       C  0.49976492  0.77475778  0.38420469    -0.05900
C1413       C  0.47291215  0.77375119  0.43566328    -0.05800
C1414       C  0.44528923  0.73411999  0.37682590    -0.05200
C1415       C  0.49993687  0.73544203  0.38469638    -0.05900
C1416       C  0.47347498  0.73454490  0.43588957    -0.05800
C1417       C  0.42125777  0.72185455  0.35224285    -0.31200
N1418       N  0.40648873  0.75241334  0.33701422     0.15300
C1419       C  0.42084838  0.78355656  0.35146607    -0.31200
H1420       H  0.41545087  0.81197097  0.34293192     0.17200
C1421       C  0.52552849  0.72406534  0.37070539    -0.30200
N1422       N  0.54123748  0.75493632  0.36152135     0.14000
C1423       C  0.52569424  0.78601353  0.36963037    -0.30200
C1424       C  0.48081359  0.72277166  0.47086218    -0.30500
N1425       N  0.48461604  0.75350199  0.49204338     0.14500
H1426       H  0.48506801  0.69415693  0.47976598     0.17100
C1427       C  0.48021777  0.78475632  0.47081234    -0.30500
H1428       H  0.48387493  0.81333029  0.47978801     0.17100
H1429       H  0.53248048  0.81470250  0.36518149     0.17100
H1430       H  0.41633045  0.69312452  0.34445055     0.17200
H1431       H  0.53200951  0.69535439  0.36736550     0.17100
Zr1432     Zr  0.37085062  0.94618138  0.33712099     2.17500
O1433       O  0.34891610  0.91924861  0.38739282    -0.50300
O1434       O  0.35425631  0.89600862  0.29354685    -0.73500
O1435       O  0.31475485  0.95585160  0.32842433    -0.80300
O1436       O  0.45264327  0.91078032  0.37868899    -0.82000
O1437       O  0.29874745  0.50711785  0.30359427    -0.77700
O1438       O  0.40207682  0.89508967  0.37083569    -0.89300
O1439       O  0.37308850  0.90730684  0.24154850    -0.75300
O1440       O  0.35958899  0.97422744  0.27890882    -0.84700
O1441       O  0.41449459  0.93635974  0.30862656    -0.84400
O1442       O  0.35305595  0.50702094  0.35354619    -0.71200
O1443       O  0.41226562  0.97860816  0.37398422    -0.83300
Zr1444     Zr  0.42969358  0.56425932  0.31735299     2.26400
Zr1445     Zr  0.34638965  0.53910991  0.29624451     2.06300
Zr1446     Zr  0.45618118  0.96730600  0.34518194     2.10000
Zr1447     Zr  0.40315393  0.96371748  0.25033709     1.78800
O1448       O  0.48816832  0.97884862  0.40230800    -0.92100
O1449       O  0.36889283  0.97602070  0.19488952    -0.39900
O1450       O  0.44576637  0.99323404  0.28548128    -0.76600
O1451       O  0.39352081  0.53411085  0.27248241    -0.95300
O1452       O  0.38260714  0.57129331  0.33928836    -0.88600
O1453       O  0.43741233  0.53497814  0.37484260    -0.91400
C1454       C  0.35772691  0.88759676  0.26119432     1.02300
C1455       C  0.43072719  0.88831225  0.38244109     1.15300
C1456       C  0.29600781  0.98081001  0.31322682     1.06100
O1457       O  0.31586971  0.53715148  0.23714124    -0.93600
O1458       O  0.35474017  0.59808766  0.26271642    -0.89300
O1459       O  0.40538991  0.61121358  0.27730266    -0.82400
C1460       C  0.37887777  0.61839490  0.26047527     1.12700
O1461       O  0.35762242  0.51809421  0.43931436    -0.95500
Zr1462     Zr  0.38963321  0.53940098  0.39564618     1.88900
O1463       O  0.43916621  0.61430653  0.35991907    -0.72200
O1464       O  0.31269030  0.58323910  0.31933346    -0.51400
O1465       O  0.34849069  0.58321765  0.39986149    -0.96100
O1466       O  0.41619132  0.53278443  0.45663511    -0.53300
O1467       O  0.41758628  0.59862705  0.40900275    -0.72700
C1468       C  0.43380801  0.62034884  0.39171009     0.99600
O1469       O  0.46403540  0.59742520  0.28221472    -0.61500
O1470       O  0.48775945  0.91855507  0.32499706    -0.56300
O1471       O  0.48210003  0.55379570  0.34156357    -0.93000
O1472       O  0.50376668  0.98920391  0.32800063    -0.91400
O1473       O  0.43686534  0.91429145  0.23637798    -0.91800
O1474       O  0.43111698  0.98087489  0.20152034    -0.90600
C1475       C  0.49585393  0.52817746  0.32793777     1.18500
H1476       H  0.41840366  0.90993849  0.30678469     0.34400
H1477       H  0.39263092  0.54690253  0.24971303     0.45300
H1478       H  0.45351057  0.54645906  0.39138815     0.38800
H1479       H  0.33428709  0.50788439  0.36369505     0.35300
H1480       H  0.36735898  0.95195360  0.18193228     0.27100
H1481       H  0.32493502  0.60662593  0.32343067     0.33000
H1482       H  0.35825122  0.60838898  0.40103427     0.38900
H1483       H  0.45762549  0.92291481  0.24674073     0.33400
H1484       H  0.50080083  0.90926026  0.34682705     0.32300
H1485       H  0.47542051  0.97096232  0.42060290     0.33900
H1486       H  0.43697248  0.54314241  0.45591541     0.32900
H1487       H  0.42950924  0.51562082  0.21268871     0.36900
H1488       H  0.45471031  0.59564690  0.25678840     0.29600
H1489       H  0.33451039  0.89954232  0.37679929     0.33900
H1490       H  0.35109538  0.49240876  0.43171286     0.36700
H1491       H  0.47363989  0.89744997  0.31735943     0.29300
H1492       H  0.46298090  0.62426544  0.28830363     0.42200
H1493       H  0.31426502  0.51020420  0.23112063     0.32300
H1494       H  0.34853586  0.97909801  0.20235504     0.39900
H1495       H  0.41924879  0.50548268  0.46022109     0.31700
H1496       H  0.29692589  0.58911186  0.29863641     0.31800
H1497       H  0.33579035  0.93902537  0.39496341     0.32100
C1498       C  0.35478827  0.71424657  0.21837674     0.31000
C1499       C  0.35564137  0.79073462  0.21792519     0.31000
C1500       C  0.35788184  0.73281356  0.25524158    -0.05200
C1501       C  0.38105772  0.73326183  0.20094039    -0.05900
C1502       C  0.32584073  0.73296361  0.19830058    -0.05800
C1503       C  0.35884372  0.77180341  0.25474554    -0.05200
C1504       C  0.38124375  0.77236543  0.20083641    -0.05900
C1505       C  0.32647232  0.77254042  0.19789427    -0.05800
C1506       C  0.37553184  0.78291274  0.28643922    -0.31200
N1507       N  0.38378014  0.75235647  0.30676314     0.15300
C1508       C  0.37320467  0.72164798  0.28812977    -0.31200
H1509       H  0.37933296  0.69333934  0.29622066     0.17200
C1510       C  0.40739968  0.78462752  0.18775278    -0.30200
N1511       N  0.42327098  0.75424082  0.17966179     0.14000
C1512       C  0.40742964  0.72277615  0.18775423    -0.30200
C1513       C  0.29657931  0.78396276  0.19497719    -0.30500
N1514       N  0.27782684  0.75356588  0.19307546     0.14500
H1515       H  0.28926393  0.81236960  0.19841445     0.17100
C1516       C  0.29537409  0.72243500  0.19591185    -0.30500
H1517       H  0.28707964  0.69444798  0.20064754     0.17100
H1518       H  0.41489981  0.69429630  0.18547309     0.17100
H1519       H  0.38456272  0.81084636  0.29183295     0.17200
H1520       H  0.41478732  0.81345262  0.18554691     0.17100
C1521       C  0.34461300  0.85164323  0.24623148    -0.15400
C1522       C  0.35690835  0.83338287  0.22045712    -0.30600
H1523       H  0.32898597  0.83666056  0.26118884     0.13600
H1524       H  0.37357380  0.84798122  0.20675453     0.14200
C1525       C  0.37830761  0.65365489  0.23902141    -0.15400
C1526       C  0.35361300  0.67147329  0.22225350    -0.30600
H1527       H  0.39981718  0.66925024  0.24245260     0.13600
H1528       H  0.33166749  0.65700086  0.21828715     0.14200
C1529       C  0.46742041  0.83530914  0.39625909    -0.15400
C1530       C  0.43986112  0.85126449  0.39930828    -0.30600
H1531       H  0.48487600  0.85185797  0.38566127     0.13600
H1532       H  0.42201564  0.83407831  0.40843165     0.14200
C1533       C  0.47024506  0.67378580  0.39778934    -0.15400
C1534       C  0.44594049  0.65576055  0.40838930    -0.30600
H1535       H  0.48485323  0.65912838  0.38191801     0.13600
H1536       H  0.43187349  0.67010073  0.42514114     0.14200
C1537       C  0.49485263  0.52968596  0.26515695    -0.15400
C1538       C  0.51012418  0.53784591  0.29756558    -0.30600
H1539       H  0.47317842  0.51469549  0.26238263     0.13600
H1540       H  0.53210324  0.55231718  0.30150588     0.14200
C1541       C  0.64373952  0.85359760  0.26889381    -0.15400
C1542       C  0.62983649  0.83506097  0.29358302    -0.30600
H1543       H  0.65920647  0.83818263  0.25471492     0.13600
H1544       H  0.61321684  0.84964954  0.30667485     0.14200
C1545       C  0.64845624  0.65615114  0.27337034    -0.15400
C1546       C  0.63104931  0.67330039  0.29508902    -0.30600
H1547       H  0.66771251  0.67104042  0.26487068     0.13600
H1548       H  0.61187875  0.65814520  0.30363066     0.14200
C1549       C  0.52274723  0.83516853  0.12202419    -0.15400
C1550       C  0.53777797  0.85240315  0.15118466    -0.30600
H1551       H  0.51852568  0.85051467  0.09682293     0.13600
H1552       H  0.54168536  0.83699529  0.17637462     0.14200
C1553       C  0.51552332  0.67371606  0.12504324    -0.15400
C1554       C  0.53665290  0.65491161  0.11004433    -0.30600
H1555       H  0.50436843  0.65987981  0.14549125     0.13600
H1556       H  0.54729348  0.66829389  0.08892760     0.14200
C1557       C  0.24243369  0.00383001  0.30527850    -0.15400
C1558       C  0.26254902  0.97573550  0.31466821    -0.30600
H1559       H  0.25109098  0.03062554  0.29684133     0.13600
H1560       H  0.25462293  0.94935948  0.32481216     0.14200
C1561       C  0.22647476  0.72599249  0.19047715    -0.15400
C1562       C  0.24565751  0.75574099  0.19526207    -0.30600
H1563       H  0.23471121  0.69899725  0.18333280     0.13600
H1564       H  0.23662087  0.78300586  0.20047450     0.14200
C1565       C  0.10730267  0.89791807  0.27713913    -0.15400
C1566       C  0.13255203  0.91728324  0.29043662    -0.30600
H1567       H  0.08562384  0.91244397  0.27467434     0.13600
H1568       H  0.15459808  0.90366695  0.29337776     0.14200
C1569       C  0.13880003  0.59431124  0.26306912    -0.15400
C1570       C  0.12482277  0.57662507  0.28852070    -0.30600
H1571       H  0.15458942  0.57876610  0.24948197     0.13600
H1572       H  0.10831101  0.59171798  0.30135638     0.14200
C1573       C  0.02570002  0.91848367  0.09497823    -0.15400
C1574       C  0.02406680  0.89881392  0.12476991    -0.30600
H1575       H  0.03531963  0.90590894  0.07312899     0.13600
H1576       H  0.01451834  0.91263337  0.14610520     0.14200
C1577       C  0.02771441  0.57783080  0.10568269    -0.15400
C1578       C  0.05539791  0.59525898  0.10510573    -0.30600
H1579       H  0.00964113  0.59279178  0.11589667     0.13600
H1580       H  0.07400723  0.57967726  0.09668264     0.14200
C1581       C  0.75027172  0.99395948  0.17727864    -0.15400
C1582       C  0.73058044  0.96438261  0.17719238    -0.30600
H1583       H  0.74201872  0.52463751  0.17565863     0.13600
H1584       H  0.73785624  0.93608120  0.17291114     0.14200
C1585       C  0.75982218  0.72605177  0.30591149    -0.15400
C1586       C  0.74172354  0.75653562  0.30486135    -0.30600
H1587       H  0.75135026  0.69892019  0.31351119     0.13600
H1588       H  0.75113737  0.78372566  0.29870523     0.14200
C1589       C  0.00488734  0.75776262  0.25334942    -0.15400
C1590       C  0.98723774  0.74308891  0.22506252    -0.30600
H1591       H  0.02182305  0.77878957  0.25054504     0.13600
H1592       H  0.97131859  0.72050976  0.22846845     0.14200
C1593       C  0.84773233  0.59001685  0.22595306    -0.15400
C1594       C  0.86363495  0.57214332  0.20312769    -0.30600
H1595       H  0.83088234  0.57438622  0.23855613     0.13600
H1596       H  0.88142930  0.58728220  0.19174970     0.14200
C1597       C  0.88553744  0.89362568  0.20952808    -0.15400
C1598       C  0.86024648  0.91110731  0.19482167    -0.30600
H1599       H  0.90709306  0.90914893  0.21216511     0.13600
H1600       H  0.83839021  0.89640784  0.19172952     0.14200
C1601       C  0.95187995  0.57303626  0.38023871    -0.15400
C1602       C  0.93666963  0.58962294  0.35080062    -0.30600
H1603       H  0.95505271  0.58844215  0.40515565     0.13600
H1604       H  0.93352674  0.57475893  0.32560717     0.14200
C1605       C  0.96711712  0.91366755  0.38690491    -0.15400
C1606       C  0.96779835  0.89374577  0.35737785    -0.30600
H1607       H  0.95619436  0.90146417  0.40835464     0.13600
H1608       H  0.97731560  0.90728939  0.33547588     0.14200
C1609       C  0.96705926  0.52999380  0.87931469     0.31000
C1610       C  0.97306339  0.95611349  0.88172849     0.31000
C1611       C  0.93707318  0.50757770  0.86755688    -0.05200
C1612       C  0.99095520  0.51292560  0.85726981    -0.05900
C1613       C  0.97721730  0.51349458  0.91660663    -0.05800
C1614       C  0.94404162  0.97145916  0.85964672    -0.05200
C1615       C  0.99882262  0.97607733  0.86478981    -0.05900
C1616       C  0.97423807  0.97650277  0.91736335    -0.05800
C1617       C  0.92126135  0.95749061  0.83392203    -0.31200
N1618       N  0.90404250  0.98667508  0.81946575     0.15300
C1619       C  0.91248526  0.51608421  0.84193562    -0.31200
H1620       H  0.90342447  0.54350379  0.83515634     0.17200
C1621       C  0.02611449  0.96573234  0.85397015    -0.30200
N1622       N  0.04113496  0.99704251  0.84445917     0.14000
C1623       C  0.01835877  0.52562524  0.84651240    -0.30200
C1624       C  0.98726616  0.96722770  0.95140098    -0.30500
N1625       N  0.99449825  0.49706399  0.97248745     0.14500
H1626       H  0.99440796  0.93940001  0.96032014     0.17100
C1627       C  0.98674649  0.52693103  0.95055013    -0.30500
H1628       H  0.98856463  0.55599861  0.95843206     0.17100
H1629       H  0.02550463  0.55465441  0.84530397     0.17100
H1630       H  0.91931350  0.92906396  0.82419800     0.17200
H1631       H  0.03476160  0.93750394  0.85430831     0.17100
Zr1632     Zr  0.87286934  0.68582004  0.81242006     2.17500
O1633       O  0.85367997  0.65367614  0.86200087    -0.50300
O1634       O  0.85575143  0.63708283  0.76789567    -0.73500
O1635       O  0.81746882  0.69892487  0.80981418    -0.80300
O1636       O  0.95070435  0.65335262  0.85810307    -0.82000
O1637       O  0.80833439  0.75816101  0.78771028    -0.77700
O1638       O  0.90554719  0.63056226  0.83115526    -0.89300
O1639       O  0.87876152  0.64833920  0.71878512    -0.75300
O1640       O  0.85979356  0.71863807  0.75688786    -0.84700
O1641       O  0.91548731  0.67833998  0.78120757    -0.84400
O1642       O  0.86767316  0.75133062  0.82725637    -0.71200
O1643       O  0.91578440  0.71400184  0.85050727    -0.83300
Zr1644     Zr  0.94062326  0.79893748  0.77603716     2.26400
Zr1645     Zr  0.85541915  0.78386012  0.77076457     2.06300
Zr1646     Zr  0.95864063  0.70470117  0.81939383     2.10000
Zr1647     Zr  0.90175226  0.70974867  0.72535380     1.78800
O1648       O  0.99854661  0.71808337  0.86943913    -0.92100
O1649       O  0.85859695  0.72107094  0.67849750    -0.39900
O1650       O  0.94543346  0.73476377  0.76206463    -0.76600
O1651       O  0.89694540  0.77424037  0.73797125    -0.95300
O1652       O  0.89890305  0.81125216  0.80689403    -0.88600
O1653       O  0.95330226  0.76932224  0.83310826    -0.91400
C1654       C  0.86288311  0.62782571  0.73725549     1.02300
C1655       C  0.93323894  0.62617415  0.84716277     1.15300
C1656       C  0.79966945  0.72717289  0.80100102     1.06100
O1657       O  0.81653830  0.78202413  0.71797915    -0.93600
O1658       O  0.86420403  0.84060389  0.73528046    -0.89300
O1659       O  0.91570123  0.85000390  0.74324098    -0.82400
C1660       C  0.88855900  0.85905785  0.73022456     1.12700
O1661       O  0.88852720  0.76170834  0.91563608    -0.95500
Zr1662     Zr  0.91123169  0.78018411  0.86292026     1.88900
O1663       O  0.95887278  0.84858422  0.81418504    -0.72200
O1664       O  0.83098132  0.83503139  0.79746893    -0.51400
O1665       O  0.87533356  0.82658309  0.87796264    -0.96100
O1666       O  0.94838910  0.76839006  0.91616200    -0.53300
O1667       O  0.94267591  0.83905943  0.86794158    -0.72700
C1668       C  0.95745492  0.85778315  0.84623194     0.99600
O1669       O  0.96841924  0.82686965  0.73109767    -0.61500
O1670       O  0.98868371  0.65195132  0.80394049    -0.56300
O1671       O  0.99277096  0.78126125  0.79613534    -0.93000
O1672       O  0.99917263  0.72155398  0.78624520    -0.91400
O1673       O  0.93694813  0.67007590  0.69939079    -0.91800
O1674       O  0.92215210  0.73304274  0.67255162    -0.90600
C1675       C  0.00380383  0.75585493  0.77920017     1.18500
H1676       H  0.91951387  0.65257404  0.77614257     0.34400
H1677       H  0.89370407  0.78734138  0.71527796     0.45300
H1678       H  0.97122125  0.77924246  0.84792689     0.38800
H1679       H  0.85104768  0.75363221  0.84102451     0.35300
H1680       H  0.86259161  0.70541284  0.65825749     0.27100
H1681       H  0.81036852  0.83673115  0.78321631     0.33000
H1682       H  0.87922352  0.84915633  0.86372959     0.38900
H1683       H  0.95255092  0.66293178  0.71983992     0.33400
H1684       H  0.99863144  0.64121421  0.82696532     0.32300
H1685       H  0.01792650  0.71591022  0.85944907     0.33900
H1686       H  0.96647649  0.78403258  0.91304163     0.32900
H1687       H  0.91549778  0.75939342  0.66928107     0.36900
H1688       H  0.95458257  0.82551372  0.70800491     0.29600
H1689       H  0.83692767  0.63722071  0.85056747     0.33900
H1690       H  0.89365409  0.78219243  0.93304054     0.36700
H1691       H  0.97367844  0.63268366  0.79380190     0.29300
H1692       H  0.97045547  0.85390161  0.73677359     0.42200
H1693       H  0.82794284  0.78592252  0.69753994     0.32300
H1694       H  0.84083585  0.70876270  0.68716762     0.39900
H1695       H  0.95505892  0.74231781  0.91350382     0.31700
H1696       H  0.82726703  0.82518644  0.82108384     0.31800
H1697       H  0.84335544  0.67326914  0.87403310     0.32100
C1698       C  0.86195511  0.95331140  0.69246125     0.31000
C1699       C  0.86904908  0.53061567  0.69528845     0.31000
C1700       C  0.86726909  0.97004102  0.73016017    -0.05200
C1701       C  0.88679154  0.97332208  0.67366289    -0.05900
C1702       C  0.83211743  0.97209973  0.67531195    -0.05800
C1703       C  0.87667515  0.50981660  0.73113100    -0.05200
C1704       C  0.89238254  0.51384577  0.67303858    -0.05900
C1705       C  0.83856436  0.51202670  0.67888128    -0.05800
C1706       C  0.88524941  0.51932019  0.76637982    -0.31200
N1707       N  0.88537905  0.98710702  0.78575409     0.15300
C1708       C  0.87818745  0.95707238  0.76432948    -0.31200
H1709       H  0.88311954  0.92833654  0.77221880     0.17200
C1710       C  0.91681091  0.52684293  0.65676663    -0.30200
N1711       N  0.92738706  0.99463813  0.64963914     0.14000
C1712       C  0.91176918  0.96309812  0.65758783    -0.30200
C1713       C  0.80848401  0.52276604  0.67595305    -0.30500
N1714       N  0.78415748  0.99171201  0.67368893     0.14500
H1715       H  0.80072915  0.55092698  0.67962664     0.17100
C1716       C  0.80182838  0.96087073  0.67419140    -0.30500
H1717       H  0.79389925  0.93251990  0.67804362     0.17100
H1718       H  0.91843623  0.93471369  0.65303723     0.17100
H1719       H  0.88907972  0.54750210  0.77632766     0.17200
H1720       H  0.92381111  0.55583645  0.65475018     0.17100
C1721       C  0.02971542  0.54002354  0.59678532     0.31000
C1722       C  0.02526709  0.96033048  0.59830758     0.31000
C1723       C  0.05552793  0.52039930  0.62120977    -0.05200
C1724       C  0.00083918  0.52044866  0.60785189    -0.05900
C1725       C  0.03148320  0.52310607  0.55956575    -0.05800
C1726       C  0.05179504  0.97868553  0.62266081    -0.05200
C1727       C  0.99668964  0.97775116  0.61133207    -0.05900
C1728       C  0.02656136  0.98077376  0.56271941    -0.05800
C1729       C  0.07477029  0.96677261  0.64894171    -0.31200
N1730       N  0.08722957  0.99730654  0.66660931     0.15300
C1731       C  0.07724500  0.53111533  0.64905866    -0.31200
H1732       H  0.08088168  0.55926749  0.65904107     0.17200
C1733       C  0.97067067  0.96539551  0.62483220    -0.30200
N1734       N  0.95496565  0.99573929  0.63407677     0.14000
C1735       C  0.97482261  0.53041551  0.62210710    -0.30200
C1736       C  0.01454181  0.96987977  0.52896131    -0.30500
N1737       N  0.01051377  0.50195660  0.50566327     0.14500
H1738       H  0.00855254  0.94137958  0.52126115     0.17100
C1739       C  0.01659600  0.53324901  0.52585702    -0.30500
H1740       H  0.00766066  0.56075760  0.51835874     0.17100
H1741       H  0.96855729  0.55865216  0.62784511     0.17100
H1742       H  0.08059555  0.93821723  0.65640766     0.17200
H1743       H  0.96417809  0.93641755  0.62830221     0.17100
Zr1744     Zr  0.12748429  0.69318825  0.66708603     2.17500
O1745       O  0.15409025  0.65966151  0.62513415    -0.50300
O1746       O  0.14124483  0.64396928  0.71335867    -0.73500
O1747       O  0.18276529  0.70687787  0.67581039    -0.80300
O1748       O  0.04650449  0.65568520  0.62391644    -0.82000
O1749       O  0.19216290  0.76188973  0.70581117    -0.77700
O1750       O  0.09744633  0.64393821  0.62995087    -0.89300
O1751       O  0.11492305  0.65232714  0.75981336    -0.75300
O1752       O  0.13667324  0.72327770  0.72390250    -0.84700
O1753       O  0.08217237  0.68348018  0.69286259    -0.84400
O1754       O  0.13619057  0.75950038  0.65613325    -0.71200
O1755       O  0.08837214  0.72372893  0.62560401    -0.83300
Zr1756     Zr  0.06131842  0.80957094  0.69958956     2.26400
Zr1757     Zr  0.14426245  0.78936316  0.71404954     2.06300
Zr1758     Zr  0.04286326  0.71424209  0.65217677     2.10000
Zr1759     Zr  0.09179779  0.71292293  0.74998184     1.78800
O1760       O  0.01705255  0.71376630  0.59061840    -0.92100
O1761       O  0.13072374  0.71709963  0.80278957    -0.39900
O1762       O  0.05431931  0.74360411  0.70896940    -0.76600
O1763       O  0.09966124  0.77870484  0.74169823    -0.95300
O1764       O  0.10595830  0.82005651  0.67297618    -0.88600
O1765       O  0.05170950  0.77964481  0.64231383    -0.91400
C1766       C  0.13329831  0.63393574  0.74369986     1.02300
C1767       C  0.06899081  0.63558694  0.61873711     1.15300
C1768       C  0.20079374  0.73281252  0.69049978     1.06100
O1769       O  0.17490244  0.78604924  0.77307751    -0.93600
O1770       O  0.13503365  0.84780867  0.74589186    -0.89300
O1771       O  0.08396953  0.84885907  0.74778478    -0.82400
C1772       C  0.11100913  0.86212018  0.75605394     1.12700
O1773       O  0.12875387  0.77716448  0.57076552    -0.95500
Zr1774     Zr  0.09652033  0.79021953  0.61607613     1.88900
O1775       O  0.07063410  0.86115832  0.66177709    -0.72200
O1776       O  0.17678005  0.83643657  0.69081746    -0.51400
O1777       O  0.13209127  0.84110616  0.60765255    -0.96100
O1778       O  0.06773580  0.77868009  0.55702718    -0.53300
O1779       O  0.06044556  0.84313172  0.60558558    -0.72700
C1780       C  0.05575802  0.86521836  0.63071735     0.99600
O1781       O  0.02606902  0.85369060  0.72078093    -0.61500
O1782       O  0.00849683  0.67290519  0.67977001    -0.56300
O1783       O  0.00746407  0.80095273  0.67750542    -0.93000
O1784       O  0.99525705  0.74626762  0.65360057    -0.91400
O1785       O  0.04758048  0.67663833  0.76268392    -0.91800
O1786       O  0.07173245  0.73181834  0.80371575    -0.90600
C1787       C  0.99601397  0.76830557  0.67979984     1.18500
H1788       H  0.07759731  0.65709970  0.69526721     0.34400
H1789       H  0.10248076  0.78917182  0.76539516     0.45300
H1790       H  0.03426371  0.78958273  0.62683054     0.42800
H1791       H  0.15439359  0.76253311  0.64504149     0.35300
H1792       H  0.12757337  0.69447071  0.81731107     0.27100
H1793       H  0.16246059  0.85546639  0.67904836     0.33000
H1794       H  0.12216228  0.86406439  0.61457691     0.38900
H1795       H  0.05122808  0.65082256  0.75511830     0.33400
H1796       H  0.99328135  0.66411487  0.65961752     0.32300
H1797       H  0.99836464  0.69836279  0.59137372     0.33900
H1798       H  0.04606111  0.78180159  0.56009816     0.32900
H1799       H  0.07071384  0.75950372  0.80239548     0.36900
H1800       H  0.02953594  0.85351241  0.74729697     0.29600
H1801       H  0.17050999  0.64557143  0.64010536     0.33900
H1802       H  0.13352123  0.75018192  0.57402562     0.36700
H1803       H  0.02069922  0.65043151  0.68760633     0.29300
H1804       H  0.03302576  0.87887176  0.71388187     0.42200
H1805       H  0.16028350  0.79042095  0.79005945     0.32300
H1806       H  0.15040207  0.71276909  0.79401891     0.39900
H1807       H  0.06971261  0.75145461  0.55325329     0.31700
H1808       H  0.18757241  0.84909415  0.71230987     0.31800
H1809       H  0.16482252  0.67918674  0.61269551     0.32100
C1810       C  0.13643502  0.95995447  0.79064922     0.31000
C1811       C  0.13266957  0.53663546  0.78928885     0.31000
C1812       C  0.12784679  0.97805437  0.75357471    -0.05200
C1813       C  0.11329932  0.97837154  0.81255152    -0.05900
C1814       C  0.16700643  0.98003081  0.80454251    -0.05800
C1815       C  0.12675196  0.51770969  0.75300823    -0.05200
C1816       C  0.10846321  0.51720400  0.80941415    -0.05900
C1817       C  0.16319005  0.51881231  0.80636811    -0.05800
C1818       C  0.11545241  0.52959900  0.71917221    -0.31200
N1819       N  0.10667803  0.99690970  0.69956670     0.15300
C1820       C  0.11498907  0.96612062  0.72001095    -0.31200
H1821       H  0.10975444  0.93747674  0.71213802     0.17200
C1822       C  0.08157063  0.52792592  0.82158984    -0.30200
N1823       N  0.07053021  0.99760449  0.83286625     0.14000
C1824       C  0.08693709  0.96690427  0.82606469    -0.30200
C1825       C  0.19316953  0.53060418  0.80667422    -0.30500
N1826       N  0.21522046  0.00135695  0.80911575     0.14500
H1827       H  0.20048783  0.55916592  0.80241563     0.17100
C1828       C  0.19751000  0.96980121  0.80799140    -0.30500
H1829       H  0.20589703  0.94163810  0.80620363     0.17100
H1830       H  0.07936962  0.93819703  0.82848736     0.17100
H1831       H  0.10938080  0.55803330  0.71143019     0.17200
H1832       H  0.07332835  0.55628334  0.82216626     0.17100
C1833       C  0.52397326  0.79082434  0.62022459     0.31000
C1834       C  0.52160760  0.71444423  0.62154687     0.31000
C1835       C  0.55484958  0.77101898  0.63089857    -0.05200
C1836       C  0.50283462  0.77327269  0.64564889    -0.05900
C1837       C  0.51189939  0.77213328  0.58444279    -0.05800
C1838       C  0.55312893  0.73217465  0.63274130    -0.05200
C1839       C  0.50174908  0.73386467  0.64619558    -0.05900
C1840       C  0.51082758  0.73299194  0.58490648    -0.05800
C1841       C  0.57633704  0.72074123  0.65886418    -0.31200
N1842       N  0.59290949  0.75093928  0.67182363     0.15300
C1843       C  0.58070166  0.78146789  0.65405117    -0.31200
H1844       H  0.58826736  0.80965898  0.66063096     0.17200
C1845       C  0.47445301  0.72339937  0.65765326    -0.30200
N1846       N  0.45928869  0.75455453  0.66526612     0.14000
C1847       C  0.47590892  0.78505246  0.65691371    -0.30200
C1848       C  0.50012494  0.72180141  0.55047567    -0.30500
N1849       N  0.49473573  0.75304365  0.52939372     0.14500
H1850       H  0.49678028  0.69315629  0.54159208     0.17100
C1851       C  0.50176987  0.78385686  0.54996798    -0.30500
H1852       H  0.50004354  0.81260610  0.54062450     0.17100
H1853       H  0.46807323  0.81367473  0.65629628     0.17100
H1854       H  0.57771529  0.69325522  0.67122570     0.17200
H1855       H  0.46535192  0.69513178  0.65762767     0.17100
Zr1856     Zr  0.62364909  0.94227118  0.67478873     2.17500
O1857       O  0.63557681  0.90569387  0.62463688    -0.50300
O1858       O  0.64226848  0.89656924  0.72088754    -0.73500
O1859       O  0.67934871  0.94601620  0.67240491    -0.80300
O1860       O  0.53777099  0.91578063  0.64537394    -0.82000
O1861       O  0.70122552  0.50266375  0.69427197    -0.77700
O1862       O  0.58510001  0.89114381  0.66070593    -0.89300
O1863       O  0.62339776  0.91176206  0.77154838    -0.75300
O1864       O  0.64266732  0.97524910  0.72842475    -0.84700
O1865       O  0.58273682  0.94206711  0.70965714    -0.84400
O1866       O  0.64164406  0.50415887  0.65698401    -0.71200
O1867       O  0.58238802  0.97414094  0.63793291    -0.83300
Zr1868     Zr  0.57915617  0.57109552  0.70872741     2.26400
Zr1869     Zr  0.65962028  0.53816689  0.71081610     2.06300
Zr1870     Zr  0.54219025  0.97554972  0.67413795     2.10000
Zr1871     Zr  0.60179976  0.97481513  0.76244681     1.78800
O1872       O  0.50476861  0.98951282  0.62183331    -0.92100
O1873       O  0.64528701  0.98072427  0.81003556    -0.39900
O1874       O  0.56668319  0.00768222  0.72296401    -0.76600
O1875       O  0.61935518  0.53838313  0.74656095    -0.95300
O1876       O  0.61979565  0.57162593  0.67405880    -0.88600
O1877       O  0.56031784  0.53753808  0.65523485    -0.91400
C1878       C  0.63777106  0.88980447  0.75317288     1.02300
C1879       C  0.55588068  0.88816541  0.65054521     1.15300
C1880       C  0.70041160  0.97080522  0.68227605     1.06100
O1881       O  0.69894280  0.53310164  0.76296548    -0.93600
O1882       O  0.66199239  0.59810381  0.74246119    -0.89300
O1883       O  0.61297969  0.61626074  0.74290269    -0.82400
C1884       C  0.64195767  0.62052044  0.75160535     1.12700
O1885       O  0.62299566  0.51835807  0.56883114    -0.95500
Zr1886     Zr  0.60102880  0.53729901  0.62135109     1.88900
O1887       O  0.56345435  0.61819339  0.66286815    -0.72200
O1888       O  0.69089887  0.58090661  0.68029132    -0.51400
O1889       O  0.64007865  0.57978968  0.60414807    -0.96100
O1890       O  0.56363128  0.52049861  0.56970693    -0.53300
O1891       O  0.57188184  0.59547380  0.60925645    -0.72700
C1892       C  0.56092717  0.61991804  0.62855480     0.99600
O1893       O  0.55565200  0.60854026  0.75086003    -0.61500
O1894       O  0.50643804  0.93513094  0.70073271    -0.56300
O1895       O  0.52477431  0.56222435  0.69578674    -0.93000
O1896       O  0.50472490  0.00067425  0.70697539    -0.91400
O1897       O  0.56165356  0.93989581  0.78662792    -0.91800
O1898       O  0.58560338  0.00101758  0.81578105    -0.90600
C1899       C  0.51231319  0.53730525  0.71291442     1.18500
H1900       H  0.57623590  0.91741708  0.71644760     0.34400
H1901       H  0.62554294  0.55162516  0.76860263     0.45300
H1902       H  0.54263334  0.54861433  0.64110341     0.38800
H1903       H  0.65764548  0.50283979  0.64222283     0.35300
H1904       H  0.66301709  0.97127993  0.79971635     0.27100
H1905       H  0.71108452  0.58128556  0.69565163     0.33000
H1906       H  0.62877092  0.60188435  0.59334929     0.38900
H1907       H  0.57238445  0.91958586  0.80135403     0.33400
H1908       H  0.49100639  0.92692827  0.68052355     0.32300
H1909       H  0.48609009  0.97571522  0.62624110     0.33900
H1910       H  0.55252930  0.54387603  0.56227274     0.32900
H1911       H  0.58381405  0.52829060  0.80815764     0.36900
H1912       H  0.56776963  0.60426024  0.77475200     0.29600
H1913       H  0.65151277  0.88793869  0.63526154     0.33900
H1914       H  0.61633799  0.53738437  0.55006560     0.36700
H1915       H  0.51794185  0.91219340  0.70880361     0.29300
H1916       H  0.55918328  0.63518444  0.74483205     0.42200
H1917       H  0.68842617  0.53913231  0.78354772     0.32300
H1918       H  0.64919646  0.00798940  0.81275865     0.39900
H1919       H  0.54844789  0.50435930  0.57952411     0.31700
H1920       H  0.69444817  0.56757020  0.65845883     0.31800
H1921       H  0.64628366  0.92342306  0.61022440     0.32100
C1922       C  0.63731749  0.71479496  0.79736678     0.31000
C1923       C  0.63738722  0.79142939  0.79643533     0.31000
C1924       C  0.62934937  0.73369122  0.76078086    -0.05200
C1925       C  0.61437327  0.73332801  0.81922791    -0.05900
C1926       C  0.66834837  0.73356596  0.81205712    -0.05800
C1927       C  0.62904723  0.77230919  0.76019053    -0.05200
C1928       C  0.61468770  0.77245724  0.81885663    -0.05900
C1929       C  0.66847602  0.77313782  0.81125189    -0.05800
C1930       C  0.61751644  0.78326203  0.72584574    -0.31200
N1931       N  0.61116104  0.75202422  0.70570818     0.15300
C1932       C  0.61846121  0.72160808  0.72689144    -0.31200
H1933       H  0.61408036  0.69282922  0.71901431     0.17200
C1934       C  0.58996281  0.78398284  0.83472499    -0.30200
N1935       N  0.57459601  0.75325331  0.84497709     0.14000
C1936       C  0.58924491  0.72218280  0.83536823    -0.30200
C1937       C  0.69843172  0.78394139  0.80915172    -0.30500
N1938       N  0.71651907  0.75323491  0.81015760     0.14500
H1939       H  0.70598132  0.81217072  0.80387769     0.17100
C1940       C  0.69828527  0.72247606  0.81147173    -0.30500
H1941       H  0.70560488  0.69403355  0.80866412     0.17100
H1942       H  0.58150834  0.69359044  0.83823225     0.17100
H1943       H  0.61192220  0.81161615  0.71715008     0.17200
H1944       H  0.58293784  0.81265245  0.83699637     0.17100
C1945       C  0.47843644  0.79262713  0.89819993     0.31000
C1946       C  0.47884718  0.71579726  0.90064595     0.31000
C1947       C  0.45136057  0.77244110  0.87672129    -0.05200
C1948       C  0.50604843  0.77390106  0.88394852    -0.05900
C1949       C  0.47959647  0.77458219  0.93559737    -0.05800
C1950       C  0.45113727  0.73380678  0.87804125    -0.05200
C1951       C  0.50620194  0.73454853  0.88535671    -0.05900
C1952       C  0.47979822  0.73543822  0.93659272    -0.05800
C1953       C  0.42677401  0.72181896  0.85352099    -0.31200
N1954       N  0.41280781  0.75257577  0.83748106     0.15300
C1955       C  0.42771313  0.78345672  0.85153058    -0.31200
H1956       H  0.42326911  0.81182458  0.84224484     0.17200
C1957       C  0.53165465  0.72294193  0.87097505    -0.30200
N1958       N  0.54713334  0.75368748  0.86083647     0.14000
C1959       C  0.53160434  0.78486362  0.86859691    -0.30200
C1960       C  0.48372767  0.72432097  0.97181581    -0.30500
N1961       N  0.48603552  0.75545701  0.99242678     0.14500
H1962       H  0.48616838  0.69575532  0.98155164     0.17100
C1963       C  0.48352222  0.78637188  0.97063444    -0.30500
H1964       H  0.48561330  0.81514132  0.97941103     0.17100
H1965       H  0.53815419  0.81347357  0.86340043     0.17100
H1966       H  0.42108036  0.69314113  0.84617534     0.17200
H1967       H  0.53819379  0.69417482  0.86804636     0.17100
Zr1968     Zr  0.37639676  0.94620027  0.83750163     2.17500
O1969       O  0.35581196  0.91647017  0.88741688    -0.50300
O1970       O  0.35958730  0.89708143  0.79338361    -0.73500
O1971       O  0.32032229  0.95599187  0.83104394    -0.80300
O1972       O  0.45929565  0.90974057  0.87474035    -0.82000
O1973       O  0.30656781  0.51052229  0.79857202    -0.77700
O1974       O  0.40859300  0.89544975  0.87064858    -0.89300
O1975       O  0.38007327  0.90895952  0.74259333    -0.75300
O1976       O  0.36484696  0.97538632  0.77976835    -0.84700
O1977       O  0.41985743  0.93770372  0.80828904    -0.84400
O1978       O  0.36569130  0.51195334  0.84665122    -0.71200
O1979       O  0.41772305  0.97822958  0.87433752    -0.83300
Zr1980     Zr  0.43989354  0.55715333  0.79413825     2.26400
Zr1981     Zr  0.35442002  0.54023769  0.78786568     2.06300
Zr1982     Zr  0.46155053  0.96854037  0.84492082     2.10000
Zr1983     Zr  0.40836468  0.96659081  0.75076782     1.78800
O1984       O  0.49014187  0.96943811  0.90514887    -0.92100
O1985       O  0.37141655  0.97630734  0.69681779    -0.39900
O1986       O  0.45104396  0.99627291  0.78595232    -0.76600
O1987       O  0.39708394  0.52945089  0.75741962    -0.95300
O1988       O  0.39707739  0.57014390  0.82312316    -0.88600
O1989       O  0.45153380  0.53065238  0.85272418    -0.91400
C1990       C  0.36417214  0.88902033  0.76140047     1.02300
C1991       C  0.43742881  0.88803934  0.88042118     1.15300
C1992       C  0.30150980  0.98141332  0.81687277     1.06100
O1993       O  0.32304106  0.53795519  0.72930287    -0.93600
O1994       O  0.36308190  0.59963426  0.75584644    -0.89300
O1995       O  0.41434970  0.61083408  0.76670643    -0.82400
C1996       C  0.38722759  0.61968735  0.75320204     1.12700
O1997       O  0.38598965  0.53205528  0.93504445    -0.95500
Zr1998     Zr  0.40900556  0.54339026  0.88107036     1.88900
O1999       O  0.45911224  0.60839049  0.83023401    -0.72200
O2000       O  0.32233948  0.58661772  0.81062795    -0.51400
O2001       O  0.37266157  0.59154361  0.89081311    -0.96100
O2002       O  0.44356334  0.53294314  0.93676798    -0.53300
O2003       O  0.44236511  0.60094011  0.88407635    -0.72700
C2004       C  0.45760498  0.61864782  0.86207697     0.99600
O2005       O  0.45771915  0.57886056  0.73917449    -0.61500
O2006       O  0.49395553  0.92590818  0.81772362    -0.56300
O2007       O  0.49337019  0.54645386  0.81658247    -0.93000
O2008       O  0.50987343  0.99869243  0.83943984    -0.91400
O2009       O  0.44618939  0.92134747  0.73850084    -0.91800
O2010       O  0.43168434  0.98225247  0.69792725    -0.90600
C2011       C  0.50706257  0.51707223  0.80906864     1.18500
H2012       H  0.42400496  0.91138545  0.80584325     0.34400
H2013       H  0.39390923  0.54167731  0.73423884     0.45300
H2014       H  0.46942881  0.54098301  0.86726400     0.38800
H2015       H  0.34840307  0.51483537  0.85925246     0.35300
H2016       H  0.35267414  0.96277482  0.70141115     0.27100
H2017       H  0.30199391  0.58381345  0.79588396     0.33000
H2018       H  0.37987964  0.61445554  0.87942151     0.38900
H2019       H  0.43524586  0.90482354  0.71984753     0.33400
H2020       H  0.50937239  0.91726842  0.83776678     0.32300
H2021       H  0.50980403  0.95734251  0.90294609     0.33900
H2022       H  0.46343445  0.54386074  0.93256946     0.32900
H2023       H  0.43496338  0.50926938  0.70182921     0.36900
H2024       H  0.43976597  0.57865952  0.72012180     0.29600
H2025       H  0.33981774  0.89883422  0.87628502     0.33900
H2026       H  0.38520862  0.50440465  0.93754590     0.36700
H2027       H  0.48102145  0.90350104  0.81107771     0.29300
H2028       H  0.46345999  0.60563973  0.74269258     0.42200
H2029       H  0.30483837  0.55298508  0.73189555     0.32300
H2030       H  0.36586155  0.00308096  0.69686299     0.39900
H2031       H  0.44693499  0.50554115  0.93787742     0.31700
H2032       H  0.31940408  0.57715285  0.83465059     0.31800
H2033       H  0.34454273  0.93643974  0.89772873     0.32100
C2034       C  0.36198013  0.71681926  0.71652508     0.31000
C2035       C  0.36391840  0.79306791  0.71753706     0.31000
C2036       C  0.36653711  0.73460009  0.75378010    -0.05200
C2037       C  0.38764316  0.73547457  0.69819846    -0.05900
C2038       C  0.33293419  0.73624345  0.69792663    -0.05800
C2039       C  0.36782166  0.77339938  0.75396453    -0.05200
C2040       C  0.38866397  0.77449916  0.69890607    -0.05900
C2041       C  0.33393210  0.77580377  0.69851043    -0.05800
C2042       C  0.38325975  0.78399567  0.78640156    -0.31200
N2043       N  0.39094264  0.75296787  0.80642374     0.15300
C2044       C  0.38090637  0.72258674  0.78687118    -0.31200
H2045       H  0.38667380  0.69407136  0.79466141     0.17200
C2046       C  0.41515989  0.78585916  0.68593438    -0.30200
N2047       N  0.43008905  0.75490878  0.67701498     0.14000
C2048       C  0.41344696  0.72406029  0.68451501    -0.30200
C2049       C  0.30419133  0.78734439  0.69769976    -0.30500
N2050       N  0.28533151  0.75701722  0.69536530     0.14500
H2051       H  0.29713107  0.81560165  0.70232354     0.17100
C2052       C  0.30261158  0.72583606  0.69645154    -0.30500
H2053       H  0.29428882  0.69770551  0.70049694     0.17100
H2054       H  0.42018994  0.69534149  0.68185009     0.17100
H2055       H  0.39154262  0.81204008  0.79281270     0.17200
H2056       H  0.42358084  0.81436656  0.68478309     0.17100
C2057       C  0.35192809  0.85314089  0.74586423    -0.15400
C2058       C  0.36565729  0.83540171  0.72102497    -0.30600
H2059       H  0.33571249  0.83781479  0.75972853     0.13600
H2060       H  0.38293265  0.85015520  0.70839797     0.14200
C2061       C  0.38584869  0.65670836  0.73535723    -0.15400
C2062       C  0.36086650  0.67426834  0.71933045    -0.30600
H2063       H  0.40708696  0.67283563  0.73993469     0.13600
H2064       H  0.33922302  0.65925797  0.71377689     0.14200
C2065       C  0.47421155  0.83514808  0.89496234    -0.15400
C2066       C  0.44671202  0.85133462  0.89786415    -0.30600
H2067       H  0.49160046  0.85127531  0.88378832     0.13600
H2068       H  0.42899204  0.83454721  0.90773284     0.14200
C2069       C  0.47553749  0.67332989  0.90154882    -0.15400
C2070       C  0.47358004  0.65479409  0.87074432    -0.30600
H2071       H  0.46912391  0.65947140  0.92513514     0.13600
H2072       H  0.48053423  0.66982236  0.84796103     0.14200
C2073       C  0.51261400  0.54253322  0.75102863    -0.15400
C2074       C  0.51528066  0.51343742  0.77357225    -0.30600
H2075       H  0.51092351  0.57064957  0.76103929     0.13600
H2076       H  0.51902746  0.48545069  0.76419828     0.14200
C2077       C  0.64899547  0.85315788  0.76864510    -0.15400
C2078       C  0.63562408  0.83411981  0.79341435    -0.30600
H2079       H  0.66449384  0.83815876  0.75416592     0.13600
H2080       H  0.61919467  0.84837616  0.80706343     0.14200
C2081       C  0.65276710  0.65485441  0.77142627    -0.15400
C2082       C  0.63586476  0.67236764  0.79334296    -0.30600
H2083       H  0.67188157  0.66948241  0.76229451     0.13600
H2084       H  0.61692332  0.65738464  0.80259467     0.14200
C2085       C  0.52795747  0.83333027  0.61999154    -0.15400
C2086       C  0.54159393  0.85059068  0.64974906    -0.30600
H2087       H  0.52391353  0.84874658  0.59481652     0.13600
H2088       H  0.54524657  0.83489786  0.67480756     0.14200
C2089       C  0.52387919  0.67199171  0.62487176    -0.15400
C2090       C  0.54543501  0.65317358  0.61039924    -0.30600
H2091       H  0.51326332  0.65850590  0.64595192     0.13600
H2092       H  0.55559105  0.66597813  0.58863803     0.14200
C2093       C  0.24782908  0.00413418  0.80813922    -0.15400
C2094       C  0.26804447  0.97637722  0.81859529    -0.30600
H2095       H  0.25647881  0.03076276  0.79930898     0.13600
H2096       H  0.26010335  0.95014491  0.82903330     0.14200
C2097       C  0.23385817  0.72959895  0.68896547    -0.15400
C2098       C  0.25322727  0.75866063  0.69772045    -0.30600
H2099       H  0.24212056  0.70378224  0.67910222     0.13600
H2100       H  0.24437981  0.78506932  0.70568814     0.14200
C2101       C  0.11232417  0.89786876  0.77576571    -0.15400
C2102       C  0.13777556  0.91743429  0.78778053    -0.30600
H2103       H  0.09051221  0.91176813  0.77487692     0.13600
H2104       H  0.15986685  0.90422525  0.78878259     0.14200
C2105       C  0.14494850  0.59784379  0.76025090    -0.15400
C2106       C  0.13106059  0.57926413  0.78522006    -0.30600
H2107       H  0.16152632  0.58311706  0.74715172     0.13600
H2108       H  0.11388917  0.59351927  0.79770194     0.14200
C2109       C  0.02935480  0.91804349  0.59602823    -0.15400
C2110       C  0.03424678  0.89708326  0.62583569    -0.30600
H2111       H  0.03558438  0.90677002  0.57153905     0.13600
H2112       H  0.02859589  0.90919624  0.65029465     0.14200
C2113       C  0.03332746  0.58235006  0.60039705    -0.15400
C2114       C  0.06107166  0.59951735  0.60015986    -0.30600
H2115       H  0.01490073  0.59740678  0.60979197     0.13600
H2116       H  0.07969038  0.58374666  0.59197698     0.14200
C2117       C  0.75241204  0.99384434  0.67815640    -0.15400
C2118       C  0.73239183  0.96455312  0.67569423    -0.30600
H2119       H  0.74844224  0.52191509  0.67561654     0.13600
H2120       H  0.73917914  0.93692700  0.66833973     0.14200
C2121       C  0.76694416  0.72420456  0.80696450    -0.15400
C2122       C  0.74843411  0.75456640  0.80486663    -0.30600
H2123       H  0.75832605  0.69692625  0.81394286     0.13600
H2124       H  0.75799016  0.78182720  0.79921473     0.14200
C2125       C  0.01101824  0.76614893  0.74461518    -0.15400
C2126       C  0.99466978  0.75173876  0.71508537    -0.30600
H2127       H  0.02598784  0.78998850  0.74322315     0.13600
H2128       H  0.98016642  0.72724795  0.71671195     0.14200
C2129       C  0.85410699  0.58986550  0.72344951    -0.15400
C2130       C  0.86944887  0.57292150  0.69957237    -0.30600
H2131       H  0.83861150  0.57331657  0.73732468     0.13600
H2132       H  0.88576602  0.58901087  0.68656044     0.14200
C2133       C  0.88723557  0.89440117  0.70993320    -0.15400
C2134       C  0.86175529  0.91102191  0.69440616    -0.30600
H2135       H  0.90838860  0.91076173  0.71338746     0.13600
H2136       H  0.84022599  0.89561122  0.69029903     0.14200
C2137       C  0.96183852  0.57222801  0.87795081    -0.15400
C2138       C  0.94720929  0.58878776  0.84814247    -0.30600
H2139       H  0.96554199  0.58793839  0.90268253     0.13600
H2140       H  0.94405082  0.57356450  0.82314173     0.14200
C2141       C  0.97163489  0.91372854  0.88465205    -0.15400
C2142       C  0.97323533  0.89377990  0.85543672    -0.30600
H2143       H  0.96149208  0.90113655  0.90652388     0.13600
H2144       H  0.98238144  0.90778116  0.83348660     0.14200
loop_ 
_geom_bond_atom_site_label_1 
_geom_bond_atom_site_label_2 
_geom_bond_distance 
_geom_bond_site_symmetry_2 
_ccdc_geom_bond_type 
C1            C3   1.550       .  S
C1            C5   1.533       .  S
C1            C4   1.573       .  S
C1          C529   1.527       .  S
C2            C6   1.527       .  S
C2            C8   1.536       .  S
C2            C7   1.540       .  S
C2          C533   1.518       .  S
C3           C11   1.379       .  A
C3         C1078   1.386   1_545  A
C4           C15   1.403   1_655  A
C4         C1079   1.402   1_545  A
C5           C19   1.383       .  A
C5         C1080   1.393   1_545  A
C6            C9   1.388       .  A
C6         C1075   1.386       .  A
C7           C13   1.381   1_655  A
C7         C1076   1.400       .  A
C8           C16   1.370       .  A
C8         C1077   1.401       .  A
C9           N10   1.356       .  A
C9           H22   1.081       .  S
N10        C1083   1.349       .  A
N10          N99   1.413       .  S
C11        N1082   1.349   1_545  A
C11          H12   1.076       .  S
C13          N14   1.358       .  A
C13          H23   1.081       .  S
N14        C1087   1.376       .  A
N14         N215   1.432       .  S
C15        N1086   1.374   1_545  A
C15          H21   1.081       .  S
C16        N1089   1.360       .  A
C16          H18   1.081       .  S
N17          C19   1.359   1_565  A
N17        C1088   1.360       .  A
N17         N665   1.412   1_665  S
C19          H20   1.081       .  S
Zr24         O25   2.437       .  S
Zr24         O26   2.465       .  S
Zr24         O27   2.495       .  S
Zr24         O30   2.490       .  S
Zr24         O32   2.394       .  S
Zr24         O33   2.394       .  S
Zr24         O34   2.429       .  S
Zr24         O35   2.427       .  S
O25          H81   0.990       .  S
O25          H89   0.990       .  S
O26          C46   1.291       .  A
O27          C48   1.298       .  A
O28         Zr38   2.384       .  S
O28          C47   1.265       .  A
O29         Zr37   2.432       .  S
O29          C48   1.286       .  A
O30          C47   1.293       .  A
O31         Zr39   2.411       .  S
O31          C46   1.279       .  A
O32         Zr37   2.412       .  S
O32         Zr39   2.378       .  S
O33         Zr38   2.405       .  S
O33         Zr39   2.371       .  S
O33          H68   0.966       .  S
O34         Zr37   2.412       .  S
O34         Zr54   2.407       .  S
O34          H71   0.965       .  S
O35         Zr38   2.401       .  S
O35         Zr54   2.426       .  S
Zr36         O61   2.436       .  S
Zr36         O55   2.372       .  S
Zr36         O63   2.397       .  S
Zr36         O51   2.369       .  S
Zr36         O43   2.398       .  S
Zr36         O44   2.365       .  S
Zr36         O45   2.378       .  S
Zr36         O42   2.278       .  S
Zr37         O56   2.437       .  S
Zr37         O49   2.434       .  S
Zr37         O50   2.475       .  S
Zr37         O43   2.390       .  S
Zr37         O44   2.397       .  S
Zr38         O40   2.436       .  S
Zr38         O62   2.442       .  S
Zr38         O64   2.395       .  S
Zr38         O45   2.390       .  S
Zr38         O42   2.299       .  S
Zr39         O65   2.435       .  S
Zr39         O66   2.437       .  S
Zr39         O41   2.439       .  S
Zr39         O43   2.379       .  S
Zr39         O42   2.290       .  S
O40          H77   0.990   1_655  S
O41          H72   0.991       .  S
O41          H86   0.990       .  S
O43          H69   0.966       .  S
O44         Zr54   2.376       .  S
O45         Zr54   2.359       .  S
O45          H70   0.965       .  S
C46         C521   1.485       .  S
C47         C530   1.477       .  S
C48         C513   1.501       .  S
O49          H85   0.990       .  S
O50          C52   1.292       .  A
O51          C52   1.269       .  A
C52         C525   1.464       .  S
O53         Zr54   2.438       .  S
O53          H82   0.990       .  S
Zr54         O57   2.439       .  S
Zr54         O58   2.439       .  S
Zr54         O59   2.481       .  S
O55          C60   1.272       .  A
O56          H73   0.991       .  S
O56          H88   0.990       .  S
O57          H74   0.990       .  S
O58          H78   0.990       .  S
O58          H87   0.990       .  S
O59          C60   1.291       .  A
C60         C534   1.473       .  S
O61          H80   0.990       .  S
O61          H84   0.991       .  S
O62          H76   0.990       .  S
O62          H83   0.990       .  S
O63          C67   1.259       .  A
O64          C67   1.270       .  A
O65          H75   0.990       .  S
O66          H79   0.990       .  S
C67         C517   1.431   1_655  S
C90          C92   1.537       .  S
C90          C94   1.536       .  S
C90          C93   1.556       .  S
C90         C526   1.510       .  S
C91          C95   1.531       .  S
C91          C97   1.544       .  S
C91          C96   1.551       .  S
C91         C522   1.521       .  S
C92         C100   1.386       .  A
C92        C1167   1.378       .  A
C93         C104   1.392       .  A
C93        C1168   1.394       .  A
C94         C108   1.385       .  A
C94        C1169   1.408       .  A
C95          C98   1.373       .  A
C95        C1164   1.378   1_545  A
C96         C102   1.391       .  A
C96        C1165   1.396   1_545  A
C97         C105   1.377       .  A
C97        C1166   1.401   1_545  A
C98        N1171   1.360   1_545  A
C98         H111   1.080       .  S
N99         C100   1.358       .  A
N99        C1170   1.359       .  A
C100        H101   1.081       .  S
C102       N1175   1.366   1_545  A
C102        H112   1.081       .  S
N103        C104   1.367       .  A
N103       C1174   1.366       .  A
N103        N126   1.429       .  S
C104        H110   1.081       .  S
C105       N1178   1.359   1_545  A
C105        H107   1.083       .  S
N106        C108   1.355       .  A
N106       C1177   1.358       .  A
N106        C509   1.442       .  S
C108        H109   1.081       .  S
C113        C115   1.525       .  S
C113        C117   1.545       .  S
C113        C116   1.559   1_455  S
C113        C505   1.529       .  S
C114        C118   1.532       .  S
C114        C120   1.523       .  S
C114        C119   1.551   1_455  S
C114        C501   1.516       .  S
C115        C123   1.365       .  A
C115       C1190   1.375   1_545  A
C116        C127   1.392       .  A
C116       C1191   1.402   1_545  A
C117        C131   1.389       .  A
C117       C1192   1.410   1_545  A
C118        C121   1.382       .  A
C118       C1187   1.387       .  A
C119        C125   1.388       .  A
C119       C1188   1.401       .  A
C120        C128   1.362       .  A
C120       C1189   1.397       .  A
C121        N122   1.352       .  A
C121        H134   1.078       .  S
N122       C1195   1.350       .  A
N122        N211   1.406       .  S
C123       N1194   1.352   1_545  A
C123        H124   1.079       .  S
C125        N126   1.367       .  A
C125        H135   1.081       .  S
N126       C1199   1.368       .  A
C127       N1198   1.370   1_545  A
C127        H133   1.081       .  S
C128       N1201   1.351       .  A
C128        H130   1.080       .  S
N129        C131   1.360       .  A
N129       C1200   1.349   1_545  A
N129        N553   1.411   1_444  S
C131        H132   1.082       .  S
Zr136       O137   2.438       .  S
Zr136       O138   2.473       .  S
Zr136       O139   2.462       .  S
Zr136       O142   2.512       .  S
Zr136       O144   2.394       .  S
Zr136       O145   2.374       .  S
Zr136       O146   2.434       .  S
Zr136       O147   2.410       .  S
O137        H193   0.990       .  S
O137        H201   0.991       .  S
O138        C158   1.292       .  A
O139        C160   1.291       .  A
O140       Zr150   2.383       .  S
O140        C159   1.274       .  A
O141       Zr149   2.430       .  S
O141        C160   1.287       .  A
O142        C159   1.302       .  A
O143       Zr151   2.411       .  S
O143        C158   1.278       .  A
O144       Zr149   2.411       .  S
O144       Zr151   2.363       .  S
O145       Zr150   2.408       .  S
O145       Zr151   2.382       .  S
O145        H180   0.967       .  S
O146       Zr149   2.429       .  S
O146       Zr166   2.405       .  S
O146        H183   0.966       .  S
O147       Zr150   2.393       .  S
O147       Zr166   2.420       .  S
Zr148       O173   2.452       .  S
Zr148       O167   2.383       .  S
Zr148       O175   2.418       .  S
Zr148       O163   2.399       .  S
Zr148       O154   2.403       .  S
Zr148       O155   2.416       .  S
Zr148       O156   2.367       .  S
Zr148       O157   2.404       .  S
Zr149       O168   2.438       .  S
Zr149       O161   2.434       .  S
Zr149       O162   2.510       .  S
Zr149       O155   2.396       .  S
Zr149       O156   2.389       .  S
Zr150       O152   2.434       .  S
Zr150       O174   2.438   1_455  S
Zr150       O176   2.420   1_455  S
Zr150       O154   2.385       .  S
Zr150       O157   2.393       .  S
Zr151       O177   2.437       .  S
Zr151       O178   2.434       .  S
Zr151       O153   2.439       .  S
Zr151       O154   2.369       .  S
Zr151       O155   2.392       .  S
O152        H189   0.990   1_455  S
O153        H184   0.990       .  S
O153        H198   0.990       .  S
O155        H181   0.965       .  S
O156       Zr166   2.393       .  S
O157       Zr166   2.371       .  S
O157        H182   0.965       .  S
C158        C497   1.490       .  S
C159        C506   1.491       .  S
C160        C489   1.486       .  S
O161        H197   0.990       .  S
O162        C164   1.298       .  A
O163        C164   1.276       .  A
C164        C493   1.488       .  S
O165       Zr166   2.439       .  S
O165        H194   0.991       .  S
Zr166       O169   2.436       .  S
Zr166       O170   2.438       .  S
Zr166       O171   2.452       .  S
O167        C172   1.265       .  A
O168        H185   0.990       .  S
O168        H200   0.990       .  S
O169        H186   0.989       .  S
O170        H190   0.990       .  S
O170        H199   0.990       .  S
O171        C172   1.278       .  A
C172        C502   1.473       .  S
O173        H192   0.991       .  S
O173        H196   0.990       .  S
O174        H188   0.990       .  S
O174        H195   0.990   1_655  S
O175        C179   1.270   1_455  A
O176        C179   1.268       .  A
O177        H187   0.990       .  S
O178        H191   0.990       .  S
C179        C518   1.461       .  S
C202        C204   1.531       .  S
C202        C206   1.548       .  S
C202        C205   1.566       .  S
C202        C494   1.531       .  S
C203        C207   1.519       .  S
C203        C209   1.544       .  S
C203        C208   1.556       .  S
C203        C498   1.529       .  S
C204        C212   1.380       .  A
C204       C1279   1.380       .  A
C205        C216   1.393       .  A
C205       C1280   1.404       .  A
C206        C220   1.390       .  A
C206       C1281   1.405       .  A
C207        C210   1.363       .  A
C207       C1276   1.380   1_545  A
C208        C214   1.397       .  A
C208       C1277   1.405   1_545  A
C209        C217   1.383       .  A
C209       C1278   1.404   1_545  A
C210       N1283   1.350   1_545  A
C210        H223   1.078       .  S
N211        C212   1.357       .  A
N211       C1282   1.351       .  A
C212        H213   1.080       .  S
C214       N1287   1.365   1_545  A
C214        H224   1.081       .  S
N215        C216   1.371       .  A
N215       C1286   1.364       .  A
C216        H222   1.080       .  S
C217       N1290   1.360       .  A
C217        H219   1.083       .  S
N218        C220   1.360       .  A
N218       C1289   1.359       .  A
N218        C485   1.449       .  S
C220        H221   1.081       .  S
C225        C227   1.542       .  S
C225        C229   1.534       .  S
C225        C228   1.562       .  S
C225        C477   1.525       .  S
C226        C230   1.523       .  S
C226        C232   1.536       .  S
C226        C231   1.541       .  S
C226        C481   1.517       .  S
C227        C235   1.380       .  A
C227        C230   1.384       .  A
C228        C239   1.397       .  A
C228        C231   1.407       .  A
C229        C243   1.375       .  A
C229        C232   1.398       .  A
C230        C233   1.373       .  A
C231        C237   1.385       .  A
C232        C240   1.373       .  A
C233        N234   1.352       .  A
C233        H246   1.080       .  S
N234        C235   1.349       .  A
N234        N323   1.408       .  S
C235        H236   1.077       .  S
C237        N238   1.358       .  A
C237        H247   1.081       .  S
N238        C239   1.367       .  A
N238        N439   1.427       .  S
C239        H245   1.081       .  S
C240        N241   1.363       .  A
C240        H242   1.081       .  S
N241        C243   1.360       .  A
N241        N889   1.413   1_554  S
C243        H244   1.081       .  S
Zr248       O249   2.439       .  S
Zr248       O250   2.445       .  S
Zr248       O251   2.490       .  S
Zr248       O254   2.488       .  S
Zr248       O256   2.392       .  S
Zr248       O257   2.389       .  S
Zr248       O259   2.419       .  S
Zr248      O1330   2.420       .  S
O249        H305   0.990       .  S
O249        H313   0.990       .  S
O250        C270   1.287       .  A
O251        C272   1.296       .  A
O252       Zr262   2.403       .  S
O252        C271   1.274       .  A
O253       Zr261   2.401       .  S
O253       C1344   1.282   1_545  A
O254        C271   1.296       .  A
O255       Zr263   2.454       .  S
O255        C270   1.286       .  A
O256       Zr263   2.365       .  S
O256      Zr1333   2.407       .  S
O257       Zr262   2.396       .  S
O257       Zr263   2.362       .  S
O257        H292   0.965       .  S
O258       Zr261   2.404       .  S
O258       Zr278   2.389       .  S
O258      Zr1320   2.420   1_545  S
O258        H295   0.966       .  S
O259       Zr262   2.390       .  S
O259      Zr1350   2.412       .  S
Zr260       O285   2.444       .  S
Zr260       O279   2.424       .  S
Zr260       O287   2.397       .  S
Zr260       O275   2.437       .  S
Zr260       O267   2.410       .  S
Zr260       O268   2.374       .  S
Zr260       O269   2.400       .  S
Zr260      O1338   2.412       .  S
Zr261       O280   2.436       .  S
Zr261       O273   2.435       .  S
Zr261       O274   2.463       .  S
Zr261       O267   2.382       .  S
Zr261       O268   2.391       .  S
Zr261      O1328   2.407   1_545  S
Zr262       O264   2.435       .  S
Zr262       O286   2.443       .  S
Zr262       O288   2.406       .  S
Zr262      O1341   2.379       .  S
Zr262       O266   2.280       .  S
Zr263       O289   2.435       .  S
Zr263       O290   2.436       .  S
Zr263       O265   2.440       .  S
Zr263      O1339   2.397       .  S
Zr263       O266   2.306       .  S
O264        H301   0.990       .  S
O265        H296   0.990       .  S
O265        H310   0.990       .  S
O266      Zr1332   2.300       .  S
O267      Zr1335   2.399   1_545  S
O267        H293   0.965       .  S
O268       Zr278   2.392       .  S
O269       Zr278   2.362       .  S
O269      Zr1334   2.390   1_545  S
O269        H294   0.966       .  S
C270        C469   1.491       .  S
C271        C478   1.475       .  S
C272       O1325   1.279       .  A
C272        C510   1.492       .  S
O273        H309   0.990       .  S
O274        C276   1.289       .  A
O275        C276   1.283       .  A
C276        C473   1.487       .  S
O277       Zr278   2.440       .  S
O277        H306   0.990       .  S
Zr278       O281   2.438       .  S
Zr278       O282   2.439       .  S
Zr278       O283   2.450       .  S
Zr278      O1331   2.418   1_545  S
O279        C284   1.284       .  A
O280        H297   0.990       .  S
O280        H312   0.990       .  S
O281        H298   0.990       .  S
O282        H302   0.990       .  S
O282        H311   0.990       .  S
O283        C284   1.285       .  A
C284        C482   1.481       .  S
O285        H304   0.991       .  S
O285        H308   0.990       .  S
O286        H300   0.991       .  S
O286        H307   0.990       .  S
O287        C291   1.261       .  A
O288       C1363   1.276       .  A
O289        H299   0.990       .  S
O290       H1375   0.990       .  S
C291       O1360   1.272       .  A
C291        C465   1.452       .  S
H303       O1362   0.990       .  S
C314        C316   1.524       .  S
C314        C318   1.548       .  S
C314        C317   1.557       .  S
C314        C474   1.529       .  S
C315        C319   1.529       .  S
C315        C321   1.559       .  S
C315        C320   1.554       .  S
C315        C470   1.533       .  S
C316        C324   1.370       .  A
C316        C319   1.377       .  A
C317        C328   1.392       .  A
C317        C320   1.396       .  A
C318        C332   1.388       .  A
C318        C321   1.417       .  A
C319        C322   1.375       .  A
C320        C326   1.395       .  A
C321        C329   1.389       .  A
C322        N323   1.359       .  A
C322        H335   1.080       .  S
N323        C324   1.353       .  A
C324        H325   1.079       .  S
C326        N327   1.367       .  A
C326        H336   1.081       .  S
N327        C328   1.369       .  A
N327        N350   1.433       .  S
C328        H334   1.081       .  S
C329        N330   1.362       .  A
C329        H331   1.082       .  S
N330        C332   1.357       .  A
N330        C514   1.455       .  S
C332        H333   1.080       .  S
C337        C339   1.518       .  S
C337        C341   1.539       .  S
C337        C340   1.567       .  S
C337        C457   1.530       .  S
C338        C342   1.528       .  S
C338        C344   1.531       .  S
C338        C343   1.556       .  S
C338        C461   1.518       .  S
C339        C347   1.362       .  A
C339        C342   1.375       .  A
C340        C351   1.398       .  A
C340        C343   1.406       .  A
C341        C355   1.380       .  A
C341        C344   1.402       .  A
C342        C345   1.381       .  A
C343        C349   1.387       .  A
C344        C352   1.373       .  A
C345        N346   1.357       .  A
C345        H358   1.080       .  S
N346        C347   1.348       .  A
N346        N435   1.404       .  S
C347        H348   1.078       .  S
C349        N350   1.366       .  A
C349        H359   1.081       .  S
N350        C351   1.373       .  A
C351        H357   1.081       .  S
C352        N353   1.355       .  A
C352        H354   1.081       .  S
N353        C355   1.360       .  A
N353        N777   1.412       .  S
C355        H356   1.081       .  S
Zr360       O361   2.437       .  S
Zr360       O362   2.453       .  S
Zr360       O363   2.484       .  S
Zr360       O366   2.522       .  S
Zr360       O368   2.402       .  S
Zr360       O369   2.383       .  S
Zr360       O371   2.419       .  S
Zr360      O1442   2.429       .  S
O361        H417   0.990       .  S
O361        H425   0.990       .  S
O362        C382   1.288       .  A
O363        C384   1.295       .  A
O364       Zr374   2.368       .  S
O364        C383   1.267       .  A
O365       Zr373   2.425       .  S
O365       C1456   1.285   1_545  A
O366        C383   1.303       .  A
O367       Zr375   2.441       .  S
O367        C382   1.283       .  A
O368       Zr375   2.368       .  S
O368      Zr1445   2.419       .  S
O369       Zr374   2.410       .  S
O369       Zr375   2.378       .  S
O369        H404   0.965       .  S
O370       Zr373   2.413       .  S
O370       Zr390   2.416       .  S
O370      Zr1432   2.435   1_545  S
O370        H407   0.965       .  S
O371       Zr374   2.394       .  S
O371      Zr1462   2.427       .  S
Zr372       O397   2.445       .  S
Zr372       O391   2.371       .  S
Zr372       O399   2.426       .  S
Zr372       O387   2.390       .  S
Zr372       O379   2.386       .  S
Zr372       O380   2.371       .  S
Zr372       O381   2.391       .  S
Zr372      O1450   2.392   1_545  S
Zr373       O392   2.436       .  S
Zr373       O385   2.434       .  S
Zr373       O386   2.483       .  S
Zr373       O379   2.380       .  S
Zr373       O380   2.382       .  S
Zr373      O1440   2.408   1_545  S
Zr374       O376   2.437       .  S
Zr374       O398   2.446       .  S
Zr374       O400   2.387       .  S
Zr374      O1453   2.383       .  S
Zr374       O378   2.297       .  S
Zr375       O401   2.435       .  S
Zr375       O402   2.437       .  S
Zr375       O377   2.443       .  S
Zr375      O1451   2.397       .  S
Zr375       O378   2.310       .  S
O376        H413   0.990       .  S
O377        H408   0.990       .  S
O377        H422   0.989       .  S
O378      Zr1444   2.303       .  S
O379      Zr1447   2.380   1_545  S
O379        H405   0.966       .  S
O380       Zr390   2.365       .  S
O381       Zr390   2.346       .  S
O381      Zr1446   2.382   1_545  S
O381        H406   0.966       .  S
C382        C449   1.493       .  S
C383        C458   1.491       .  S
C384       O1437   1.287       .  A
C384        C486   1.496       .  S
O385        H421   0.990       .  S
O386        C388   1.293       .  A
O387        C388   1.276       .  A
C388        C453   1.478       .  S
O389       Zr390   2.437       .  S
O389        H418   0.990       .  S
Zr390       O393   2.436       .  S
Zr390       O394   2.438       .  S
Zr390       O395   2.504       .  S
Zr390      O1443   2.431   1_545  S
O391        C396   1.274       .  A
O392        H409   0.990       .  S
O392        H424   0.990       .  S
O393        H410   0.990       .  S
O394        H414   0.991       .  S
O394        H423   0.990       .  S
O395        C396   1.298       .  A
C396        C462   1.478       .  S
O397        H416   0.990       .  S
O397        H420   0.991       .  S
O398        H412   0.990       .  S
O398        H419   0.991       .  S
O399        C403   1.271       .  A
O400       C1475   1.269       .  A
O401        H411   0.990       .  S
O402       H1487   0.990       .  S
C403       O1472   1.270   1_545  A
C403        C466   1.448       .  S
H415       O1474   0.990   1_545  S
C426        C428   1.535       .  S
C426        C430   1.543       .  S
C426        C429   1.555       .  S
C426        C454   1.527       .  S
C427        C431   1.526       .  S
C427        C433   1.544       .  S
C427        C432   1.547       .  S
C427        C450   1.534       .  S
C428        C436   1.384       .  A
C428        C431   1.389       .  A
C429        C440   1.389       .  A
C429        C432   1.394       .  A
C430        C444   1.384       .  A
C430        C433   1.414       .  A
C431        C434   1.364       .  A
C432        C438   1.390       .  A
C433        C441   1.381       .  A
C434        N435   1.350       .  A
C434        H447   1.078       .  S
N435        C436   1.350       .  A
C436        H437   1.079       .  S
C438        N439   1.363       .  A
C438        H448   1.081       .  S
N439        C440   1.367       .  A
C440        H446   1.081       .  S
C441        N442   1.357       .  A
C441        H443   1.083       .  S
N442        C444   1.357       .  A
N442        C490   1.445       .  S
C444        H445   1.081       .  S
C449        C450   1.357       .  D
C449        H451   1.087       .  S
C450        H452   1.085       .  S
C453        C454   1.341       .  D
C453        H455   1.087       .  S
C454        H456   1.085       .  S
C457        C458   1.375       .  D
C457        H459   1.086       .  S
C458        H460   1.086       .  S
C461        C462   1.337       .  D
C461        H463   1.086       .  S
C462        H464   1.088       .  S
C465        C466   1.330       .  D
C465        H467   1.084       .  S
C466        H468   1.086   1_545  S
C469        C470   1.355       .  D
C469        H471   1.087       .  S
C470        H472   1.086       .  S
C473        C474   1.359       .  D
C473        H475   1.085       .  S
C474        H476   1.086       .  S
C477        C478   1.349       .  D
C477        H479   1.086       .  S
C478        H480   1.086       .  S
C481        C482   1.352       .  D
C481        H483   1.087       .  S
C482        H484   1.086       .  S
C485        C486   1.357       .  D
C485        H487   1.087       .  S
C486        H488   1.085       .  S
C489        C490   1.352       .  D
C489        H491   1.085       .  S
C490        H492   1.087       .  S
C493        C494   1.341       .  D
C493        H495   1.087       .  S
C494        H496   1.085       .  S
C497        C498   1.362       .  D
C497        H499   1.087       .  S
C498        H500   1.085       .  S
C501        C502   1.332       .  D
C501        H503   1.086       .  S
C502        H504   1.087       .  S
C505        C506   1.370       .  D
C505        H507   1.086       .  S
C506        H508   1.087       .  S
C509        C510   1.360       .  D
C509       H1583   1.087       .  S
C510        H512   1.084       .  S
H511       C1581   1.087   1_545  S
C513        C514   1.362       .  D
C513        H515   1.084       .  S
C514        H516   1.087       .  S
C517        C518   1.339   1_455  D
C517        H519   1.078       .  S
C518        H520   1.083       .  S
C521        C522   1.358       .  D
C521        H523   1.087       .  S
C522        H524   1.086       .  S
C525        C526   1.331       .  D
C525        H527   1.088       .  S
C526        H528   1.085       .  S
C529        C530   1.346       .  D
C529        H531   1.086       .  S
C530        H532   1.085       .  S
C533        C534   1.338       .  D
C533        H535   1.086       .  S
C534        H536   1.086       .  S
C537        C539   1.540       .  S
C537        C541   1.535       .  S
C537        C540   1.568       .  S
C537       C1065   1.531       .  S
C538        C542   1.531       .  S
C538        C544   1.531       .  S
C538        C543   1.547       .  S
C538       C1069   1.524       .  S
C539        C547   1.372       .  A
C539       C1614   1.379   1_545  A
C540        C551   1.397   1_655  A
C540       C1615   1.401   1_545  A
C541        C555   1.382       .  A
C541       C1616   1.401   1_545  A
C542       C1611   1.395       .  A
C542        C545   1.387       .  A
C543       C1612   1.407       .  A
C543        C549   1.387   1_655  A
C544       C1613   1.390       .  A
C544        C552   1.367       .  A
C545        N546   1.352       .  A
C545        H558   1.079       .  S
N546       C1619   1.344       .  A
N546        N635   1.412       .  S
C547       N1618   1.351   1_545  A
C547        H548   1.076       .  S
C549        N550   1.361       .  A
C549        H559   1.081       .  S
N550       C1623   1.371       .  A
N550        N751   1.433       .  S
C551       N1622   1.373   1_545  A
C551        H557   1.081       .  S
C552       N1625   1.362       .  A
C552        H554   1.080       .  S
N553       C1624   1.357       .  A
N553        C555   1.357   1_565  A
C555        H556   1.081       .  S
Zr560       O561   2.435       .  S
Zr560       O562   2.482       .  S
Zr560       O563   2.516       .  S
Zr560       O566   2.505       .  S
Zr560       O568   2.387       .  S
Zr560       O569   2.383       .  S
Zr560       O570   2.433       .  S
Zr560       O571   2.427       .  S
O561        H617   0.990       .  S
O561        H625   0.990       .  S
O562        C582   1.294       .  A
O563        C584   1.301       .  A
O564       Zr574   2.390       .  S
O564        C583   1.268       .  A
O565       Zr573   2.380       .  S
O565        C584   1.275       .  A
O566        C583   1.298       .  A
O567       Zr575   2.400       .  S
O567        C582   1.277       .  A
O568       Zr573   2.408       .  S
O568       Zr575   2.372       .  S
O569       Zr574   2.400       .  S
O569       Zr575   2.382       .  S
O569        H604   0.965       .  S
O570       Zr573   2.400       .  S
O570       Zr590   2.417       .  S
O570        H607   0.966       .  S
O571       Zr574   2.398       .  S
O571       Zr590   2.428       .  S
Zr572       O597   2.444       .  S
Zr572       O591   2.379       .  S
Zr572       O599   2.405       .  S
Zr572       O587   2.425       .  S
Zr572       O578   2.395       .  S
Zr572       O579   2.403       .  S
Zr572       O580   2.369       .  S
Zr572       O581   2.402       .  S
Zr573       O592   2.436       .  S
Zr573       O585   2.435       .  S
Zr573       O586   2.437       .  S
Zr573       O579   2.384       .  S
Zr573       O580   2.383       .  S
Zr574       O576   2.437       .  S
Zr574       O598   2.443       .  S
Zr574       O600   2.397       .  S
Zr574       O578   2.411       .  S
Zr574       O581   2.398       .  S
Zr575       O601   2.435       .  S
Zr575       O602   2.436       .  S
Zr575       O577   2.438       .  S
Zr575       O578   2.366       .  S
Zr575       O579   2.384       .  S
O576        H613   0.990   1_655  S
O577        H608   0.990       .  S
O577        H622   0.990       .  S
O579        H605   0.965       .  S
O580       Zr590   2.382       .  S
O581       Zr590   2.352       .  S
O581        H606   0.967       .  S
C582       C1057   1.484       .  S
C583       C1066   1.479       .  S
C584       C1049   1.502       .  S
O585        H621   0.990       .  S
O586        C588   1.284       .  A
O587        C588   1.281       .  A
C588       C1061   1.471       .  S
O589       Zr590   2.438       .  S
O589        H618   0.990       .  S
Zr590       O593   2.437       .  S
Zr590       O594   2.440       .  S
Zr590       O595   2.496       .  S
O591        C596   1.274       .  A
O592        H609   0.990       .  S
O592        H624   0.990       .  S
O593        H610   0.990       .  S
O594        H614   0.990       .  S
O594        H623   0.990       .  S
O595        C596   1.294       .  A
C596       C1070   1.482       .  S
O597        H616   0.991       .  S
O597        H620   0.991       .  S
O598        H612   0.990       .  S
O598        H619   0.990       .  S
O599        C603   1.258       .  A
O600        C603   1.268       .  A
O601        H611   0.990       .  S
O602        H615   0.990       .  S
C603       C1053   1.434       .  S
C626        C628   1.529       .  S
C626        C630   1.546       .  S
C626        C629   1.553       .  S
C626       C1062   1.510       .  S
C627        C631   1.527       .  S
C627        C633   1.544       .  S
C627        C632   1.551       .  S
C627       C1058   1.524       .  S
C628        C636   1.378       .  A
C628       C1703   1.377       .  A
C629        C640   1.391       .  A
C629       C1704   1.397       .  A
C630        C644   1.391       .  A
C630       C1705   1.401       .  A
C631       C1700   1.376   1_545  A
C631        C634   1.368       .  A
C632       C1701   1.394   1_545  A
C632        C638   1.391       .  A
C633       C1702   1.410   1_545  A
C633        C641   1.376       .  A
C634       N1707   1.357   1_545  A
C634        H647   1.079       .  S
N635       C1706   1.361       .  A
N635        C636   1.354       .  A
C636        H637   1.080       .  S
C638       N1711   1.368   1_545  A
C638        H648   1.081       .  S
N639       C1710   1.367       .  A
N639        C640   1.368       .  A
N639        N662   1.430       .  S
C640        H646   1.081       .  S
C641       N1714   1.355   1_545  A
C641        H643   1.083       .  S
N642       C1713   1.359       .  A
N642        C644   1.360       .  A
N642       C1045   1.447       .  S
C644        H645   1.081       .  S
C649        C651   1.524       .  S
C649        C653   1.541       .  S
C649        C652   1.556   1_455  S
C649       C1041   1.527       .  S
C650        C654   1.520       .  S
C650        C656   1.523       .  S
C650        C655   1.556       .  S
C650       C1037   1.506       .  S
C651        C659   1.366       .  A
C651       C1726   1.377   1_545  A
C652        C663   1.389       .  A
C652       C1727   1.405   1_545  A
C653        C667   1.389       .  A
C653       C1728   1.407   1_545  A
C654       C1723   1.372       .  A
C654        C657   1.377       .  A
C655       C1724   1.397       .  A
C655        C661   1.389   1_455  A
C656       C1725   1.413       .  A
C656        C664   1.365       .  A
C657        N658   1.354       .  A
C657        H670   1.080       .  S
N658       C1731   1.355       .  A
N658        N747   1.407       .  S
C659       N1730   1.353   1_545  A
C659        H660   1.079       .  S
C661        N662   1.366       .  A
C661        H671   1.081       .  S
N662       C1735   1.369       .  A
C663       N1734   1.367   1_545  A
C663        H669   1.081       .  S
C664       N1737   1.347       .  A
C664        H666   1.080       .  S
N665       C1736   1.350   1_545  A
N665        C667   1.360       .  A
C667        H668   1.082       .  S
Zr672       O673   2.438       .  S
Zr672       O674   2.471       .  S
Zr672       O675   2.459       .  S
Zr672       O678   2.510       .  S
Zr672       O680   2.393       .  S
Zr672       O681   2.374       .  S
Zr672       O682   2.437       .  S
Zr672       O683   2.417       .  S
O673        H729   0.990       .  S
O673        H737   0.990       .  S
O674        C694   1.292       .  A
O675        C696   1.290       .  A
O676       Zr686   2.379       .  S
O676        C695   1.273       .  A
O677       Zr685   2.434       .  S
O677        C696   1.286       .  A
O678        C695   1.301       .  A
O679       Zr687   2.416       .  S
O679        C694   1.280       .  A
O680       Zr685   2.408       .  S
O680       Zr687   2.376       .  S
O681       Zr686   2.401       .  S
O681       Zr687   2.376       .  S
O681        H716   0.966       .  S
O682       Zr685   2.413       .  S
O682       Zr702   2.398       .  S
O682        H719   0.965       .  S
O683       Zr686   2.396       .  S
O683       Zr702   2.428       .  S
Zr684       O709   2.452       .  S
Zr684       O703   2.341       .  S
Zr684       O711   2.457       .  S
Zr684       O699   2.404       .  S
Zr684       O690   2.399       .  S
Zr684       O691   2.390       .  S
Zr684       O692   2.376       .  S
Zr684       O693   2.398       .  S
Zr685       O704   2.438       .  S
Zr685       O697   2.434       .  S
Zr685       O698   2.489       .  S
Zr685       O691   2.387       .  S
Zr685       O692   2.381       .  S
Zr686       O688   2.436       .  S
Zr686       O710   2.437   1_455  S
Zr686       O712   2.414   1_455  S
Zr686       O690   2.420       .  S
Zr686       O693   2.376       .  S
Zr687       O713   2.436       .  S
Zr687       O714   2.433       .  S
Zr687       O689   2.437       .  S
Zr687       O690   2.393       .  S
Zr687       O691   2.389       .  S
O688        H725   0.990   1_455  S
O689        H720   0.990       .  S
O689        H734   0.989       .  S
O691        H717   0.965       .  S
O692       Zr702   2.369       .  S
O693       Zr702   2.332       .  S
O693        H718   0.965       .  S
C694       C1033   1.491       .  S
C695       C1042   1.487       .  S
C696       C1025   1.486       .  S
O697        H733   0.990       .  S
O698        C700   1.294       .  A
O699        C700   1.278       .  A
C700       C1029   1.487       .  S
O701       Zr702   2.435       .  S
O701        H730   0.990       .  S
Zr702       O705   2.435       .  S
Zr702       O706   2.437       .  S
Zr702       O707   2.496       .  S
O703        C708   1.269       .  A
O704        H721   0.990       .  S
O704        H736   0.990       .  S
O705        H722   0.990       .  S
O706        H726   0.990       .  S
O706        H735   0.990       .  S
O707        C708   1.297       .  A
C708       C1038   1.461       .  S
O709        H728   0.990       .  S
O709        H732   0.991       .  S
O710        H724   0.990       .  S
O710        H731   0.990   1_655  S
O711        C715   1.276   1_455  A
O712        C715   1.266       .  A
O713        H723   0.990       .  S
O714        H727   0.990       .  S
C715       C1054   1.450       .  S
C738        C740   1.534       .  S
C738        C742   1.551       .  S
C738        C741   1.562       .  S
C738       C1030   1.530       .  S
C739        C743   1.520       .  S
C739        C745   1.545       .  S
C739        C744   1.553       .  S
C739       C1034   1.529       .  S
C740        C748   1.380       .  A
C740       C1815   1.378       .  A
C741        C752   1.394       .  A
C741       C1816   1.398       .  A
C742        C756   1.392       .  A
C742       C1817   1.412       .  A
C743       C1812   1.380   1_545  A
C743        C746   1.363       .  A
C744       C1813   1.403   1_545  A
C744        C750   1.393       .  A
C745       C1814   1.403   1_545  A
C745        C753   1.381       .  A
C746       N1819   1.350   1_545  A
C746        H759   1.078       .  S
N747       C1818   1.351       .  A
N747        C748   1.357       .  A
C748        H749   1.080       .  S
C750       N1823   1.364   1_545  A
C750        H760   1.081       .  S
N751       C1822   1.366       .  A
N751        C752   1.370       .  A
C752        H758   1.081       .  S
C753       N1826   1.362       .  A
C753        H755   1.083       .  S
N754       C1825   1.359       .  A
N754        C756   1.360       .  A
N754       C1021   1.452       .  S
C756        H757   1.082       .  S
C761        C763   1.547       .  S
C761        C765   1.536       .  S
C761        C764   1.569       .  S
C761       C1013   1.532       .  S
C762        C766   1.520       .  S
C762        C768   1.534       .  S
C762        C767   1.540       .  S
C762       C1017   1.520       .  S
C763        C771   1.382       .  A
C763        C766   1.386       .  A
C764        C775   1.404       .  A
C764        C767   1.409       .  A
C765        C779   1.376       .  A
C765        C768   1.397       .  A
C766        C769   1.374       .  A
C767        C773   1.381       .  A
C768        C776   1.373       .  A
C769        N770   1.350       .  A
C769        H782   1.080       .  S
N770        C771   1.350       .  A
N770        N859   1.408       .  S
C771        H772   1.076       .  S
C773        N774   1.358       .  A
C773        H783   1.081       .  S
N774        C775   1.371       .  A
N774        N975   1.430       .  S
C775        H781   1.082       .  S
C776        N777   1.362       .  A
C776        H778   1.081       .  S
N777        C779   1.360       .  A
C779        H780   1.081       .  S
Zr784       O785   2.435       .  S
Zr784       O786   2.461       .  S
Zr784       O787   2.491       .  S
Zr784       O790   2.500       .  S
Zr784       O792   2.390       .  S
Zr784       O793   2.385       .  S
Zr784      O1866   2.425       .  S
Zr784       O795   2.420       .  S
O785        H841   0.990       .  S
O785        H849   0.990       .  S
O786        C806   1.290       .  A
O787        C808   1.297       .  A
O788       Zr798   2.402       .  S
O788        C807   1.272       .  A
O789       Zr797   2.408       .  S
O789       C1880   1.282   1_545  A
O790        C807   1.297       .  A
O791       Zr799   2.447       .  S
O791        C806   1.285       .  A
O792      Zr1869   2.406       .  S
O792       Zr799   2.371       .  S
O793       Zr798   2.405       .  S
O793       Zr799   2.374       .  S
O793        H828   0.964       .  S
O794      Zr1856   2.417   1_545  S
O794       Zr797   2.408       .  S
O794       Zr814   2.389       .  S
O794        H831   0.965       .  S
O795       Zr798   2.403       .  S
O795      Zr1886   2.423       .  S
Zr796       O821   2.446       .  S
Zr796       O815   2.434       .  S
Zr796       O823   2.392       .  S
Zr796       O811   2.439       .  S
Zr796       O803   2.413       .  S
Zr796       O804   2.367       .  S
Zr796       O805   2.392       .  S
Zr796      O1874   2.321       .  S
Zr797       O816   2.437       .  S
Zr797       O809   2.436       .  S
Zr797       O810   2.453       .  S
Zr797      O1864   2.404   1_545  S
Zr797       O803   2.389       .  S
Zr797       O804   2.401       .  S
Zr798       O800   2.436       .  S
Zr798       O822   2.442       .  S
Zr798       O824   2.410       .  S
Zr798       O802   2.408       .  S
Zr798      O1877   2.391       .  S
Zr799       O825   2.435       .  S
Zr799       O826   2.436       .  S
Zr799       O801   2.437       .  S
Zr799       O802   2.387       .  S
Zr799      O1875   2.398       .  S
O800        H837   0.990       .  S
O801        H832   0.990       .  S
O801        H846   0.990       .  S
O802      Zr1868   2.411       .  S
O803      Zr1871   2.393   1_545  S
O803        H829   0.965       .  S
O804       Zr814   2.392       .  S
O805      Zr1870   2.396   1_545  S
O805       Zr814   2.368       .  S
O805        H830   0.966       .  S
C806       C1005   1.496       .  S
C807       C1014   1.482       .  S
C808       O1861   1.282       .  A
C808       C1046   1.497       .  S
O809        H845   0.990       .  S
O810        C812   1.288       .  A
O811        C812   1.282       .  A
C812       C1009   1.482       .  S
O813       Zr814   2.439       .  S
O813        H842   0.990       .  S
Zr814       O817   2.438       .  S
Zr814       O818   2.439       .  S
Zr814       O819   2.446       .  S
Zr814      O1867   2.422   1_545  S
O815        C820   1.284       .  A
O816        H833   0.990       .  S
O816        H848   0.990       .  S
O817        H834   0.990       .  S
O818        H838   0.990       .  S
O818        H847   0.990       .  S
O819        C820   1.284       .  A
C820       C1018   1.484       .  S
O821        H840   0.990       .  S
O821        H844   0.991       .  S
O822        H836   0.990       .  S
O822        H843   0.990       .  S
O823        C827   1.258       .  A
O824       C1899   1.273       .  A
O825        H835   0.990       .  S
O826       H1911   0.990       .  S
C827       O1896   1.267       .  A
C827       C1001   1.445       .  S
H839       O1898   0.990       .  S
C850        C852   1.525       .  S
C850        C854   1.542       .  S
C850        C853   1.556       .  S
C850       C1010   1.524       .  S
C851        C855   1.528       .  S
C851        C857   1.558       .  S
C851        C856   1.556       .  S
C851       C1006   1.537       .  S
C852        C860   1.372       .  A
C852        C855   1.377       .  A
C853        C864   1.392       .  A
C853        C856   1.399       .  A
C854        C868   1.387       .  A
C854        C857   1.410       .  A
C855        C858   1.374       .  A
C856        C862   1.393       .  A
C857        C865   1.386       .  A
C858        N859   1.358       .  A
C858        H871   1.080       .  S
N859        C860   1.354       .  A
C860        H861   1.080       .  S
C862        N863   1.366       .  A
C862        H872   1.081       .  S
N863        C864   1.370       .  A
N863        N886   1.431       .  S
C864        H870   1.081       .  S
C865        N866   1.365       .  A
C865        H867   1.083       .  S
N866        C868   1.355       .  A
N866       C1050   1.451       .  S
C868        H869   1.080       .  S
C873        C875   1.524       .  S
C873        C877   1.542       .  S
C873        C876   1.563       .  S
C873        C993   1.522       .  S
C874        C878   1.528       .  S
C874        C880   1.527       .  S
C874        C879   1.554       .  S
C874        C997   1.511       .  S
C875        C883   1.367       .  A
C875        C878   1.376       .  A
C876        C887   1.396       .  A
C876        C879   1.402       .  A
C877        C891   1.382       .  A
C877        C880   1.401       .  A
C878        C881   1.379       .  A
C879        C885   1.387       .  A
C880        C888   1.372       .  A
C881        N882   1.357       .  A
C881        H894   1.081       .  S
N882        C883   1.352       .  A
N882        N971   1.406       .  S
C883        H884   1.079       .  S
C885        N886   1.364       .  A
C885        H895   1.081       .  S
N886        C887   1.372       .  A
C887        H893   1.081       .  S
C888        N889   1.354       .  A
C888        H890   1.081       .  S
N889        C891   1.361       .  A
C891        H892   1.081       .  S
Zr896       O897   2.439       .  S
Zr896       O898   2.477       .  S
Zr896       O899   2.474       .  S
Zr896       O902   2.501       .  S
Zr896       O904   2.390       .  S
Zr896       O905   2.379       .  S
Zr896      O1978   2.432       .  S
Zr896       O907   2.416       .  S
O897        H953   0.990       .  S
O897        H961   0.990       .  S
O898        C918   1.293       .  A
O899        C920   1.292       .  A
O900       Zr910   2.376       .  S
O900        C919   1.272       .  A
O901       Zr909   2.429       .  S
O901       C1992   1.286   1_545  A
O902        C919   1.299       .  A
O903       Zr911   2.392       .  S
O903        C918   1.276       .  A
O904      Zr1981   2.403       .  S
O904       Zr911   2.381       .  S
O905       Zr910   2.399       .  S
O905       Zr911   2.386       .  S
O905        H940   0.966       .  S
O906      Zr1968   2.432   1_545  S
O906       Zr909   2.413       .  S
O906       Zr926   2.406       .  S
O906        H943   0.965       .  S
O907       Zr910   2.396       .  S
O907      Zr1998   2.424       .  S
Zr908       O933   2.446       .  S
Zr908       O927   2.361       .  S
Zr908       O935   2.432       .  S
Zr908       O923   2.392       .  S
Zr908      O1986   2.393   1_545  S
Zr908       O915   2.386       .  S
Zr908       O916   2.373       .  S
Zr908       O917   2.389       .  S
Zr909       O928   2.436       .  S
Zr909       O921   2.434       .  S
Zr909       O922   2.483       .  S
Zr909      O1976   2.406   1_545  S
Zr909       O915   2.386       .  S
Zr909       O916   2.383       .  S
Zr910       O912   2.434       .  S
Zr910       O934   2.441       .  S
Zr910       O936   2.406       .  S
Zr910       O914   2.406       .  S
Zr910      O1989   2.380       .  S
Zr911       O937   2.436       .  S
Zr911       O938   2.436       .  S
Zr911       O913   2.436       .  S
Zr911       O914   2.381       .  S
Zr911      O1987   2.379       .  S
O912        H949   0.990       .  S
O913        H944   0.990       .  S
O913        H958   0.990       .  S
O914      Zr1980   2.387       .  S
O915      Zr1983   2.382   1_545  S
O915        H941   0.965       .  S
O916       Zr926   2.368       .  S
O917      Zr1982   2.381   1_545  S
O917       Zr926   2.346       .  S
O917        H942   0.966       .  S
C918        C985   1.483       .  S
C919        C994   1.485       .  S
C920       O1973   1.286       .  A
C920       C1022   1.500       .  S
O921        H957   0.990       .  S
O922        C924   1.293       .  A
O923        C924   1.276       .  A
C924        C989   1.478       .  S
O925       Zr926   2.436       .  S
O925        H954   0.990       .  S
Zr926       O929   2.434       .  S
Zr926       O930   2.437       .  S
Zr926       O931   2.486       .  S
Zr926      O1979   2.423   1_545  S
O927        C932   1.272       .  A
O928        H945   0.990       .  S
O928        H960   0.990       .  S
O929        H946   0.990       .  S
O930        H950   0.990       .  S
O930        H959   0.990       .  S
O931        C932   1.295       .  A
C932        C998   1.467       .  S
O933        H952   0.990       .  S
O933        H956   0.991       .  S
O934        H948   0.990       .  S
O934        H955   0.990       .  S
O935        C939   1.272       .  A
O936       C2011   1.270       .  A
O937        H947   0.990       .  S
O938       H2023   0.990       .  S
C939       O2008   1.269   1_545  A
C939       C1002   1.451       .  S
H951       O2010   0.990   1_545  S
C962        C964   1.535       .  S
C962        C966   1.542       .  S
C962        C965   1.556       .  S
C962        C990   1.524       .  S
C963        C967   1.525       .  S
C963        C969   1.542       .  S
C963        C968   1.550       .  S
C963        C986   1.522       .  S
C964        C972   1.382       .  A
C964        C967   1.384       .  A
C965        C976   1.387       .  A
C965        C968   1.395       .  A
C966        C980   1.385       .  A
C966        C969   1.411       .  A
C967        C970   1.369       .  A
C968        C974   1.395       .  A
C969        C977   1.380       .  A
C970        N971   1.351       .  A
C970        H983   1.079       .  S
N971        C972   1.352       .  A
C972        H973   1.079       .  S
C974        N975   1.365       .  A
C974        H984   1.081       .  S
N975        C976   1.368       .  A
C976        H982   1.080       .  S
C977        N978   1.355       .  A
C977        H979   1.083       .  S
N978        C980   1.357       .  A
N978       C1026   1.443       .  S
C980        H981   1.082       .  S
C985        C986   1.360       .  D
C985        H987   1.087       .  S
C986        H988   1.086       .  S
C989        C990   1.340       .  D
C989        H991   1.088       .  S
C990        H992   1.085       .  S
C993        C994   1.368       .  D
C993        H995   1.086       .  S
C994        H996   1.087       .  S
C997        C998   1.332       .  D
C997        H999   1.086       .  S
C998       H1000   1.088       .  S
C1001      C1002   1.327       .  D
C1001      H1003   1.082       .  S
C1002      H1004   1.086   1_545  S
C1005      C1006   1.358       .  D
C1005      H1007   1.087       .  S
C1006      H1008   1.086       .  S
C1009      C1010   1.359       .  D
C1009      H1011   1.085       .  S
C1010      H1012   1.086       .  S
C1013      C1014   1.350       .  D
C1013      H1015   1.086       .  S
C1014      H1016   1.086       .  S
C1017      C1018   1.354       .  D
C1017      H1019   1.087       .  S
C1018      H1020   1.086       .  S
C1021      C1022   1.357       .  D
C1021      H1023   1.087       .  S
C1022      H1024   1.085       .  S
C1025      C1026   1.351       .  D
C1025      H1027   1.085       .  S
C1026      H1028   1.087       .  S
C1029      C1030   1.345       .  D
C1029      H1031   1.088       .  S
C1030      H1032   1.085       .  S
C1033      C1034   1.360       .  D
C1033      H1035   1.087       .  S
C1034      H1036   1.085       .  S
C1037      C1038   1.327       .  D
C1037      H1039   1.086       .  S
C1038      H1040   1.089       .  S
C1041      C1042   1.369       .  D
C1041      H1043   1.086       .  S
C1042      H1044   1.086       .  S
C1045      C1046   1.360       .  D
C1045      H2119   1.087       .  S
C1046      H1048   1.085       .  S
H1047      C2117   1.087   1_545  S
C1049      C1050   1.369       .  D
C1049      H1051   1.084       .  S
C1050      H1052   1.087       .  S
C1053      C1054   1.322       .  D
C1053      H1055   1.078       .  S
C1054      H1056   1.085       .  S
C1057      C1058   1.361       .  D
C1057      H1059   1.086       .  S
C1058      H1060   1.086       .  S
C1061      C1062   1.351       .  D
C1061      H1063   1.085       .  S
C1062      H1064   1.086       .  S
C1065      C1066   1.349       .  D
C1065      H1067   1.086       .  S
C1066      H1068   1.085       .  S
C1069      C1070   1.338       .  D
C1069      H1071   1.087       .  S
C1070      H1072   1.087       .  S
C1073      C1075   1.549       .  S
C1073      C1077   1.531       .  S
C1073      C1076   1.575       .  S
C1073      C1601   1.528       .  S
C1074      C1078   1.529       .  S
C1074      C1080   1.531       .  S
C1074      C1079   1.549       .  S
C1074      C1605   1.518       .  S
C1075      C1083   1.376       .  A
C1076      C1087   1.406   1_655  A
C1077      C1091   1.381       .  A
C1078      C1081   1.388       .  A
C1079      C1085   1.387   1_655  A
C1080      C1088   1.367       .  A
C1081      N1082   1.355       .  A
C1081      H1094   1.080       .  S
N1082      N1171   1.414       .  S
C1083      H1084   1.076       .  S
C1085      N1086   1.363       .  A
C1085      H1095   1.081       .  S
N1086      N1287   1.434       .  S
C1087      H1093   1.081       .  S
C1088      H1090   1.080       .  S
N1089      C1091   1.354       .  A
N1089      N1737   1.411   1_655  S
C1091      H1092   1.081       .  S
Zr1096     O1097   2.435       .  S
Zr1096     O1098   2.469       .  S
Zr1096     O1099   2.463       .  S
Zr1096     O1102   2.476       .  S
Zr1096     O1104   2.394       .  S
Zr1096     O1105   2.386       .  S
Zr1096     O1106   2.432       .  S
Zr1096     O1107   2.426       .  S
O1097      H1153   0.990       .  S
O1097      H1161   0.990       .  S
O1098      C1118   1.292       .  A
O1099      C1120   1.292       .  A
O1100     Zr1110   2.394       .  S
O1100      C1119   1.267       .  A
O1101     Zr1109   2.448       .  S
O1101      C1120   1.290       .  A
O1102      C1119   1.290       .  A
O1103     Zr1111   2.406       .  S
O1103      C1118   1.278       .  A
O1104     Zr1109   2.412       .  S
O1104     Zr1111   2.376       .  S
O1105     Zr1110   2.397       .  S
O1105     Zr1111   2.371       .  S
O1105      H1140   0.965       .  S
O1106     Zr1109   2.407       .  S
O1106     Zr1126   2.407       .  S
O1106      H1143   0.965       .  S
O1107     Zr1110   2.388       .  S
O1107     Zr1126   2.438       .  S
Zr1108     O1133   2.431       .  S
Zr1108     O1127   2.361       .  S
Zr1108     O1135   2.409       .  S
Zr1108     O1123   2.377       .  S
Zr1108     O1115   2.393       .  S
Zr1108     O1116   2.371       .  S
Zr1108     O1117   2.382       .  S
Zr1108     O1114   2.274       .  S
Zr1109     O1128   2.437       .  S
Zr1109     O1121   2.437       .  S
Zr1109     O1122   2.477       .  S
Zr1109     O1115   2.394       .  S
Zr1109     O1116   2.400       .  S
Zr1110     O1112   2.436       .  S
Zr1110     O1134   2.441       .  S
Zr1110     O1136   2.376       .  S
Zr1110     O1117   2.391       .  S
Zr1110     O1114   2.311       .  S
Zr1111     O1137   2.436       .  S
Zr1111     O1138   2.436       .  S
Zr1111     O1113   2.441       .  S
Zr1111     O1115   2.370       .  S
Zr1111     O1114   2.294       .  S
O1112      H1149   0.990   1_655  S
O1113      H1144   0.990       .  S
O1113      H1158   0.989       .  S
O1115      H1141   0.965       .  S
O1116     Zr1126   2.372       .  S
O1117     Zr1126   2.350       .  S
O1117      H1142   0.966       .  S
C1118      C1593   1.486       .  S
C1119      C1602   1.477       .  S
C1120      C1585   1.492       .  S
O1121      H1157   0.990       .  S
O1122      C1124   1.292       .  A
O1123      C1124   1.272       .  A
C1124      C1597   1.467       .  S
O1125     Zr1126   2.439       .  S
O1125      H1154   0.990       .  S
Zr1126     O1129   2.439       .  S
Zr1126     O1130   2.437       .  S
Zr1126     O1131   2.503       .  S
O1127      C1132   1.270       .  A
O1128      H1145   0.990       .  S
O1128      H1160   0.990       .  S
O1129      H1146   0.990       .  S
O1130      H1150   0.990       .  S
O1130      H1159   0.990       .  S
O1131      C1132   1.297       .  A
C1132      C1606   1.477       .  S
O1133      H1152   0.991       .  S
O1133      H1156   0.990       .  S
O1134      H1148   0.990       .  S
O1134      H1155   0.990       .  S
O1135      C1139   1.261       .  A
O1136      C1139   1.265       .  A
O1137      H1147   0.990       .  S
O1138      H1151   0.990       .  S
C1139      C1589   1.420   1_655  S
C1162      C1164   1.536       .  S
C1162      C1166   1.538       .  S
C1162      C1165   1.559       .  S
C1162      C1598   1.508       .  S
C1163      C1167   1.527       .  S
C1163      C1169   1.546       .  S
C1163      C1168   1.550       .  S
C1163      C1594   1.524       .  S
C1164      C1172   1.385       .  A
C1165      C1176   1.394       .  A
C1166      C1180   1.388       .  A
C1167      C1170   1.369       .  A
C1168      C1174   1.389       .  A
C1169      C1177   1.378       .  A
C1170      H1183   1.080       .  S
N1171      C1172   1.358       .  A
C1172      H1173   1.081       .  S
C1174      H1184   1.081       .  S
N1175      C1176   1.369       .  A
N1175      N1198   1.431       .  S
C1176      H1182   1.081       .  S
C1177      H1179   1.083       .  S
N1178      C1180   1.358       .  A
N1178      C1581   1.444       .  S
C1180      H1181   1.081       .  S
C1185      C1187   1.529       .  S
C1185      C1189   1.541       .  S
C1185      C1188   1.559   1_455  S
C1185      C1577   1.530       .  S
C1186      C1190   1.523       .  S
C1186      C1192   1.526       .  S
C1186      C1191   1.557   1_455  S
C1186      C1573   1.515       .  S
C1187      C1195   1.367       .  A
C1188      C1199   1.389       .  A
C1189      C1203   1.386       .  A
C1190      C1193   1.380       .  A
C1191      C1197   1.390       .  A
C1192      C1200   1.366       .  A
C1193      N1194   1.354       .  A
C1193      H1206   1.080       .  S
N1194      N1283   1.405       .  S
C1195      H1196   1.079       .  S
C1197      N1198   1.367       .  A
C1197      H1207   1.081       .  S
C1199      H1205   1.081       .  S
C1200      H1202   1.080       .  S
N1201      C1203   1.365       .  A
N1201      N1625   1.411   1_454  S
C1203      H1204   1.081       .  S
Zr1208     O1209   2.440       .  S
Zr1208     O1210   2.485       .  S
Zr1208     O1211   2.447       .  S
Zr1208     O1214   2.502       .  S
Zr1208     O1216   2.394       .  S
Zr1208     O1217   2.370       .  S
Zr1208     O1218   2.439       .  S
Zr1208     O1219   2.420       .  S
O1209      H1265   0.990       .  S
O1209      H1273   0.990       .  S
O1210      C1230   1.294       .  A
O1211      C1232   1.286       .  A
O1212     Zr1222   2.383       .  S
O1212      C1231   1.273       .  A
O1213     Zr1221   2.427       .  S
O1213      C1232   1.285       .  A
O1214      C1231   1.299       .  A
O1215     Zr1223   2.390       .  S
O1215      C1230   1.274       .  A
O1216     Zr1221   2.408       .  S
O1216     Zr1223   2.367       .  S
O1217     Zr1222   2.406       .  S
O1217     Zr1223   2.395       .  S
O1217      H1252   0.966       .  S
O1218     Zr1221   2.418       .  S
O1218     Zr1238   2.408       .  S
O1218      H1255   0.965       .  S
O1219     Zr1222   2.388       .  S
O1219     Zr1238   2.431       .  S
Zr1220     O1245   2.467       .  S
Zr1220     O1239   2.359       .  S
Zr1220     O1247   2.422   1_455  S
Zr1220     O1235   2.408       .  S
Zr1220     O1226   2.393       .  S
Zr1220     O1227   2.404       .  S
Zr1220     O1228   2.372       .  S
Zr1220     O1229   2.397       .  S
Zr1221     O1240   2.437       .  S
Zr1221     O1233   2.435       .  S
Zr1221     O1234   2.478       .  S
Zr1221     O1227   2.399       .  S
Zr1221     O1228   2.402       .  S
Zr1222     O1224   2.434       .  S
Zr1222     O1246   2.439       .  S
Zr1222     O1248   2.401   1_455  S
Zr1222     O1226   2.390       .  S
Zr1222     O1229   2.402       .  S
Zr1223     O1249   2.436       .  S
Zr1223     O1250   2.434       .  S
Zr1223     O1225   2.438       .  S
Zr1223     O1226   2.358       .  S
Zr1223     O1227   2.398       .  S
O1224      H1261   0.990       .  S
O1225      H1256   0.991       .  S
O1225      H1270   0.990       .  S
O1227      H1253   0.966       .  S
O1228     Zr1238   2.380       .  S
O1229     Zr1238   2.355       .  S
O1229      H1254   0.966       .  S
C1230      C1569   1.487       .  S
C1231      C1578   1.490       .  S
C1232      C1561   1.479       .  S
O1233      H1269   0.990       .  S
O1234      C1236   1.291       .  A
O1235      C1236   1.275       .  A
C1236      C1565   1.485       .  S
O1237     Zr1238   2.435       .  S
O1237      H1266   0.990       .  S
Zr1238     O1241   2.436       .  S
Zr1238     O1242   2.437       .  S
Zr1238     O1243   2.484       .  S
O1239      C1244   1.266       .  A
O1240      H1257   0.990       .  S
O1240      H1272   0.990       .  S
O1241      H1258   0.990       .  S
O1242      H1262   0.991       .  S
O1242      H1271   0.990       .  S
O1243      C1244   1.291       .  A
C1244      C1574   1.472       .  S
O1245      H1264   0.991       .  S
O1245      H1268   0.991       .  S
O1246      H1260   0.991   1_455  S
O1246      H1267   0.990       .  S
O1247      C1251   1.271       .  A
O1248      C1251   1.264       .  A
O1249      H1259   0.990       .  S
O1250      H1263   0.990       .  S
C1251      C1590   1.458       .  S
C1274      C1276   1.534       .  S
C1274      C1278   1.548       .  S
C1274      C1277   1.564       .  S
C1274      C1566   1.529       .  S
C1275      C1279   1.520       .  S
C1275      C1281   1.542       .  S
C1275      C1280   1.552       .  S
C1275      C1570   1.526       .  S
C1276      C1284   1.382       .  A
C1277      C1288   1.395       .  A
C1278      C1292   1.390       .  A
C1279      C1282   1.364       .  A
C1280      C1286   1.396       .  A
C1281      C1289   1.381       .  A
C1282      H1295   1.079       .  S
N1283      C1284   1.357       .  A
C1284      H1285   1.080       .  S
C1286      H1296   1.081       .  S
N1287      C1288   1.369       .  A
C1288      H1294   1.080       .  S
C1289      H1291   1.083       .  S
N1290      C1292   1.360   1_545  A
N1290      C1557   1.450       .  S
C1292      H1293   1.081       .  S
C1297      C1299   1.546       .  S
C1297      C1301   1.536       .  S
C1297      C1300   1.569       .  S
C1297      C1549   1.531       .  S
C1298      C1302   1.522       .  S
C1298      C1304   1.537       .  S
C1298      C1303   1.535       .  S
C1298      C1553   1.516       .  S
C1299      C1307   1.380       .  A
C1299      C1302   1.387       .  A
C1300      C1311   1.399       .  A
C1300      C1303   1.405       .  A
C1301      C1315   1.377       .  A
C1301      C1304   1.396       .  A
C1302      C1305   1.377       .  A
C1303      C1309   1.380       .  A
C1304      C1312   1.373       .  A
C1305      N1306   1.352       .  A
C1305      H1318   1.080       .  S
N1306      C1307   1.348       .  A
N1306      N1395   1.408       .  S
C1307      H1308   1.076       .  S
C1309      N1310   1.357       .  A
C1309      H1319   1.081       .  S
N1310      C1311   1.372       .  A
N1310      N1511   1.427       .  S
C1311      H1317   1.081       .  S
C1312      N1313   1.363       .  A
C1312      H1314   1.081       .  S
N1313      C1315   1.360       .  A
N1313      N1961   1.413   1_554  S
C1315      H1316   1.081       .  S
Zr1320     O1321   2.436       .  S
Zr1320     O1322   2.439       .  S
Zr1320     O1323   2.490       .  S
Zr1320     O1326   2.501       .  S
Zr1320     O1328   2.392       .  S
Zr1320     O1329   2.382       .  S
Zr1320     O1331   2.416       .  S
O1321      H1377   0.990       .  S
O1321      H1385   0.990       .  S
O1322      C1342   1.286       .  A
O1323      C1344   1.296       .  A
O1324     Zr1334   2.403       .  S
O1324      C1343   1.274       .  A
O1325     Zr1333   2.391       .  S
O1326      C1343   1.299       .  A
O1327     Zr1335   2.446       .  S
O1327      C1342   1.285       .  A
O1328     Zr1335   2.367       .  S
O1329     Zr1334   2.400       .  S
O1329     Zr1335   2.369       .  S
O1329      H1364   0.966       .  S
O1330     Zr1333   2.407       .  S
O1330     Zr1350   2.400       .  S
O1330      H1367   0.965       .  S
O1331     Zr1334   2.399       .  S
Zr1332     O1357   2.448       .  S
Zr1332     O1351   2.439       .  S
Zr1332     O1359   2.361       .  S
Zr1332     O1347   2.436       .  S
Zr1332     O1339   2.409       .  S
Zr1332     O1340   2.364       .  S
Zr1332     O1341   2.389       .  S
Zr1333     O1352   2.436       .  S
Zr1333     O1345   2.436       .  S
Zr1333     O1346   2.456       .  S
Zr1333     O1339   2.383       .  S
Zr1333     O1340   2.394       .  S
Zr1334     O1336   2.435       .  S
Zr1334     O1358   2.441       .  S
Zr1334     O1360   2.413   1_565  S
Zr1334     O1338   2.405   1_565  S
Zr1335     O1361   2.437       .  S
Zr1335     O1362   2.435   1_565  S
Zr1335     O1337   2.435       .  S
Zr1335     O1338   2.386   1_565  S
O1336      H1373   0.990       .  S
O1337      H1368   0.990       .  S
O1337      H1382   0.990       .  S
O1339      H1365   0.964       .  S
O1340     Zr1350   2.397       .  S
O1341     Zr1350   2.383       .  S
O1341      H1366   0.965       .  S
C1342      C1541   1.486       .  S
C1343      C1550   1.481       .  S
C1344      C1582   1.494       .  S
O1345      H1381   0.990       .  S
O1346      C1348   1.287       .  A
O1347      C1348   1.281       .  A
C1348      C1545   1.482       .  S
O1349     Zr1350   2.436       .  S
O1349      H1378   0.990       .  S
Zr1350     O1353   2.435       .  S
Zr1350     O1354   2.438       .  S
Zr1350     O1355   2.436       .  S
O1351      C1356   1.283       .  A
O1352      H1369   0.990       .  S
O1352      H1384   0.990       .  S
O1353      H1370   0.990       .  S
O1354      H1374   0.990       .  S
O1354      H1383   0.990       .  S
O1355      C1356   1.282       .  A
C1356      C1554   1.481       .  S
O1357      H1376   0.991       .  S
O1357      H1380   0.991       .  S
O1358      H1372   0.990       .  S
O1358      H1379   0.990       .  S
O1359      C1363   1.272       .  A
O1361      H1371   0.989       .  S
C1363      C1537   1.435       .  S
C1386      C1388   1.526       .  S
C1386      C1390   1.549       .  S
C1386      C1389   1.557       .  S
C1386      C1546   1.525       .  S
C1387      C1391   1.528       .  S
C1387      C1393   1.551       .  S
C1387      C1392   1.547       .  S
C1387      C1542   1.528       .  S
C1388      C1396   1.374       .  A
C1388      C1391   1.378       .  A
C1389      C1400   1.393       .  A
C1389      C1392   1.396       .  A
C1390      C1404   1.387       .  A
C1390      C1393   1.415       .  A
C1391      C1394   1.373       .  A
C1392      C1398   1.389       .  A
C1393      C1401   1.386       .  A
C1394      N1395   1.359       .  A
C1394      H1407   1.080       .  S
N1395      C1396   1.353       .  A
C1396      H1397   1.080       .  S
C1398      N1399   1.363       .  A
C1398      H1408   1.081       .  S
N1399      C1400   1.371       .  A
N1399      N1422   1.430       .  S
C1400      H1406   1.081       .  S
C1401      N1402   1.358       .  A
C1401      H1403   1.082       .  S
N1402      C1404   1.357       .  A
N1402      C1586   1.451       .  S
C1404      H1405   1.080       .  S
C1409      C1411   1.526       .  S
C1409      C1413   1.544       .  S
C1409      C1412   1.568       .  S
C1409      C1529   1.532       .  S
C1410      C1414   1.523       .  S
C1410      C1416   1.533       .  S
C1410      C1415   1.546       .  S
C1410      C1533   1.512       .  S
C1411      C1419   1.369       .  A
C1411      C1414   1.377       .  A
C1412      C1423   1.395       .  A
C1412      C1415   1.403       .  A
C1413      C1427   1.380       .  A
C1413      C1416   1.399       .  A
C1414      C1417   1.375       .  A
C1415      C1421   1.385       .  A
C1416      C1424   1.375       .  A
C1417      N1418   1.356       .  A
C1417      H1430   1.080       .  S
N1418      C1419   1.353       .  A
N1418      N1507   1.406       .  S
C1419      H1420   1.079       .  S
C1421      N1422   1.363       .  A
C1421      H1431   1.081       .  S
N1422      C1423   1.373       .  A
C1423      H1429   1.081       .  S
C1424      N1425   1.359       .  A
C1424      H1426   1.081       .  S
N1425      C1427   1.365       .  A
N1425      N1849   1.416       .  S
C1427      H1428   1.081       .  S
Zr1432     O1433   2.438       .  S
Zr1432     O1434   2.477       .  S
Zr1432     O1435   2.482       .  S
Zr1432     O1438   2.518       .  S
Zr1432     O1440   2.392       .  S
Zr1432     O1441   2.375       .  S
Zr1432     O1443   2.422       .  S
O1433      H1489   0.990       .  S
O1433      H1497   0.990       .  S
O1434      C1454   1.293       .  A
O1435      C1456   1.295       .  A
O1436     Zr1446   2.384       .  S
O1436      C1455   1.273       .  A
O1437     Zr1445   2.433       .  S
O1438      C1455   1.303       .  A
O1439     Zr1447   2.397       .  S
O1439      C1454   1.277       .  A
O1440     Zr1447   2.378       .  S
O1441     Zr1446   2.400       .  S
O1441     Zr1447   2.385       .  S
O1441      H1476   0.966       .  S
O1442     Zr1445   2.417       .  S
O1442     Zr1462   2.391       .  S
O1442      H1479   0.965       .  S
O1443     Zr1446   2.402       .  S
Zr1444     O1469   2.445       .  S
Zr1444     O1463   2.408       .  S
Zr1444     O1471   2.395       .  S
Zr1444     O1459   2.399       .  S
Zr1444     O1451   2.406       .  S
Zr1444     O1452   2.368       .  S
Zr1444     O1453   2.379       .  S
Zr1445     O1464   2.436       .  S
Zr1445     O1457   2.434       .  S
Zr1445     O1458   2.494       .  S
Zr1445     O1451   2.397       .  S
Zr1445     O1452   2.400       .  S
Zr1446     O1448   2.436       .  S
Zr1446     O1470   2.442       .  S
Zr1446     O1472   2.410       .  S
Zr1446     O1450   2.410       .  S
Zr1447     O1473   2.435       .  S
Zr1447     O1474   2.435       .  S
Zr1447     O1449   2.436       .  S
Zr1447     O1450   2.381       .  S
O1448      H1485   0.990       .  S
O1449      H1480   0.990       .  S
O1449      H1494   0.990       .  S
O1451      H1477   0.965       .  S
O1452     Zr1462   2.383       .  S
O1453     Zr1462   2.367       .  S
O1453      H1478   0.966       .  S
C1454      C1521   1.484       .  S
C1455      C1530   1.495       .  S
C1456      C1558   1.497       .  S
O1457      H1493   0.990       .  S
O1458      C1460   1.295       .  A
O1459      C1460   1.276       .  A
C1460      C1525   1.487       .  S
O1461     Zr1462   2.435       .  S
O1461      H1490   0.990       .  S
Zr1462     O1465   2.438       .  S
Zr1462     O1466   2.437       .  S
Zr1462     O1467   2.454       .  S
O1463      C1468   1.279       .  A
O1464      H1481   0.990       .  S
O1464      H1496   0.990       .  S
O1465      H1482   0.990       .  S
O1466      H1486   0.990       .  S
O1466      H1495   0.990       .  S
O1467      C1468   1.286       .  A
C1468      C1534   1.478       .  S
O1469      H1488   0.990       .  S
O1469      H1492   0.991       .  S
O1470      H1484   0.990       .  S
O1470      H1491   0.990       .  S
O1471      C1475   1.260       .  A
O1473      H1483   0.990       .  S
C1475      C1538   1.425       .  S
C1498      C1500   1.536       .  S
C1498      C1502   1.544       .  S
C1498      C1501   1.561       .  S
C1498      C1526   1.532       .  S
C1499      C1503   1.527       .  S
C1499      C1505   1.536       .  S
C1499      C1504   1.540       .  S
C1499      C1522   1.525       .  S
C1500      C1508   1.381       .  A
C1500      C1503   1.391       .  A
C1501      C1512   1.391       .  A
C1501      C1504   1.395       .  A
C1502      C1516   1.384       .  A
C1502      C1505   1.412       .  A
C1503      C1506   1.371       .  A
C1504      C1510   1.387       .  A
C1505      C1513   1.377       .  A
C1506      N1507   1.348       .  A
C1506      H1519   1.079       .  S
N1507      C1508   1.350       .  A
C1508      H1509   1.078       .  S
C1510      N1511   1.361       .  A
C1510      H1520   1.081       .  S
N1511      C1512   1.371       .  A
C1512      H1518   1.081       .  S
C1513      N1514   1.353       .  A
C1513      H1515   1.083       .  S
N1514      C1516   1.357       .  A
N1514      C1562   1.440       .  S
C1516      H1517   1.081       .  S
C1521      C1522   1.359       .  D
C1521      H1523   1.087       .  S
C1522      H1524   1.085       .  S
C1525      C1526   1.342       .  D
C1525      H1527   1.088       .  S
C1526      H1528   1.085       .  S
C1529      C1530   1.372       .  D
C1529      H1531   1.085       .  S
C1530      H1532   1.086       .  S
C1533      C1534   1.353       .  D
C1533      H1535   1.086       .  S
C1534      H1536   1.087       .  S
C1537      C1538   1.341       .  D
C1537      H1539   1.084       .  S
C1538      H1540   1.086       .  S
C1541      C1542   1.352       .  D
C1541      H1543   1.087       .  S
C1542      H1544   1.085       .  S
C1545      C1546   1.360       .  D
C1545      H1547   1.084       .  S
C1546      H1548   1.086       .  S
C1549      C1550   1.350       .  D
C1549      H1551   1.086       .  S
C1550      H1552   1.086       .  S
C1553      C1554   1.351       .  D
C1553      H1555   1.086       .  S
C1554      H1556   1.087       .  S
C1557      C1558   1.357   1_545  D
C1557      H1559   1.087       .  S
C1558      H1560   1.085       .  S
C1561      C1562   1.347       .  D
C1561      H1563   1.085       .  S
C1562      H1564   1.087       .  S
C1565      C1566   1.342       .  D
C1565      H1567   1.087       .  S
C1566      H1568   1.085       .  S
C1569      C1570   1.362       .  D
C1569      H1571   1.086       .  S
C1570      H1572   1.086       .  S
C1573      C1574   1.329       .  D
C1573      H1575   1.086       .  S
C1574      H1576   1.089       .  S
C1577      C1578   1.369       .  D
C1577      H1579   1.086       .  S
C1578      H1580   1.086       .  S
C1581      C1582   1.359       .  D
C1582      H1584   1.085       .  S
C1585      C1586   1.355       .  D
C1585      H1587   1.084       .  S
C1586      H1588   1.087       .  S
C1589      C1590   1.335   1_455  D
C1589      H1591   1.069       .  S
C1590      H1592   1.082       .  S
C1593      C1594   1.359       .  D
C1593      H1595   1.086       .  S
C1594      H1596   1.086       .  S
C1597      C1598   1.332       .  D
C1597      H1599   1.089       .  S
C1598      H1600   1.085       .  S
C1601      C1602   1.346       .  D
C1601      H1603   1.086       .  S
C1602      H1604   1.085       .  S
C1605      C1606   1.334       .  D
C1605      H1607   1.086       .  S
C1606      H1608   1.087       .  S
C1609      C1611   1.550       .  S
C1609      C1613   1.527       .  S
C1609      C1612   1.571       .  S
C1609      C2137   1.526       .  S
C1610      C1614   1.528       .  S
C1610      C1616   1.531       .  S
C1610      C1615   1.548       .  S
C1610      C2141   1.516       .  S
C1611      C1619   1.379       .  A
C1612      C1623   1.402   1_655  A
C1613      C1627   1.379       .  A
C1614      C1617   1.385       .  A
C1615      C1621   1.385   1_655  A
C1616      C1624   1.368       .  A
C1617      N1618   1.359       .  A
C1617      H1630   1.081       .  S
N1618      N1707   1.412       .  S
C1619      H1620   1.076       .  S
C1621      N1622   1.364       .  A
C1621      H1631   1.081       .  S
N1622      N1823   1.431       .  S
C1623      H1629   1.081       .  S
C1624      H1626   1.080       .  S
N1625      C1627   1.358       .  A
C1627      H1628   1.081       .  S
Zr1632     O1633   2.436       .  S
Zr1632     O1634   2.467       .  S
Zr1632     O1635   2.487       .  S
Zr1632     O1638   2.493       .  S
Zr1632     O1640   2.389       .  S
Zr1632     O1641   2.384       .  S
Zr1632     O1642   2.431       .  S
Zr1632     O1643   2.422       .  S
O1633      H1689   0.990       .  S
O1633      H1697   0.990       .  S
O1634      C1654   1.291       .  A
O1635      C1656   1.296       .  A
O1636     Zr1646   2.385       .  S
O1636      C1655   1.267       .  A
O1637     Zr1645   2.432       .  S
O1637      C1656   1.286       .  A
O1638      C1655   1.294       .  A
O1639     Zr1647   2.404       .  S
O1639      C1654   1.278       .  A
O1640     Zr1645   2.408       .  S
O1640     Zr1647   2.374       .  S
O1641     Zr1646   2.405       .  S
O1641     Zr1647   2.379       .  S
O1641      H1676   0.965       .  S
O1642     Zr1645   2.410       .  S
O1642     Zr1662   2.409       .  S
O1642      H1679   0.966       .  S
O1643     Zr1646   2.400       .  S
O1643     Zr1662   2.429       .  S
Zr1644     O1669   2.434       .  S
Zr1644     O1663   2.355       .  S
Zr1644     O1671   2.408       .  S
Zr1644     O1659   2.380       .  S
Zr1644     O1650   2.375       .  S
Zr1644     O1651   2.397       .  S
Zr1644     O1652   2.371       .  S
Zr1644     O1653   2.384       .  S
Zr1645     O1664   2.436       .  S
Zr1645     O1657   2.434       .  S
Zr1645     O1658   2.473       .  S
Zr1645     O1651   2.391       .  S
Zr1645     O1652   2.393       .  S
Zr1646     O1648   2.436       .  S
Zr1646     O1670   2.442       .  S
Zr1646     O1672   2.399       .  S
Zr1646     O1650   2.402       .  S
Zr1646     O1653   2.391       .  S
Zr1647     O1673   2.434       .  S
Zr1647     O1674   2.440       .  S
Zr1647     O1649   2.438       .  S
Zr1647     O1650   2.376       .  S
Zr1647     O1651   2.374       .  S
O1648      H1685   0.990   1_655  S
O1649      H1680   0.990       .  S
O1649      H1694   0.990       .  S
O1651      H1677   0.964       .  S
O1652     Zr1662   2.371       .  S
O1653     Zr1662   2.350       .  S
O1653      H1678   0.966       .  S
C1654      C2129   1.483       .  S
C1655      C2138   1.475       .  S
C1656      C2121   1.499       .  S
O1657      H1693   0.990       .  S
O1658      C1660   1.292       .  A
O1659      C1660   1.272       .  A
C1660      C2133   1.465       .  S
O1661     Zr1662   2.439       .  S
O1661      H1690   0.990       .  S
Zr1662     O1665   2.437       .  S
Zr1662     O1666   2.438       .  S
Zr1662     O1667   2.498       .  S
O1663      C1668   1.268       .  A
O1664      H1681   0.990       .  S
O1664      H1696   0.990       .  S
O1665      H1682   0.990       .  S
O1666      H1686   0.990       .  S
O1666      H1695   0.990       .  S
O1667      C1668   1.296       .  A
C1668      C2142   1.474       .  S
O1669      H1688   0.990       .  S
O1669      H1692   0.991       .  S
O1670      H1684   0.990       .  S
O1670      H1691   0.990       .  S
O1671      C1675   1.259   1_655  A
O1672      C1675   1.270   1_655  A
O1673      H1683   0.990       .  S
O1674      H1687   0.990       .  S
C1675      C2125   1.432       .  S
C1698      C1700   1.535       .  S
C1698      C1702   1.539       .  S
C1698      C1701   1.555       .  S
C1698      C2134   1.510       .  S
C1699      C1703   1.531       .  S
C1699      C1705   1.543       .  S
C1699      C1704   1.553       .  S
C1699      C2130   1.520       .  S
C1700      C1708   1.386       .  A
C1701      C1712   1.391       .  A
C1702      C1716   1.388       .  A
C1703      C1706   1.375       .  A
C1704      C1710   1.391       .  A
C1705      C1713   1.377       .  A
C1706      H1719   1.080       .  S
N1707      C1708   1.357       .  A
C1708      H1709   1.080       .  S
C1710      H1720   1.081       .  S
N1711      C1712   1.366       .  A
N1711      N1734   1.429       .  S
C1712      H1718   1.081       .  S
C1713      H1715   1.083       .  S
N1714      C1716   1.356       .  A
N1714      C2117   1.441       .  S
C1716      H1717   1.081       .  S
C1721      C1723   1.529       .  S
C1721      C1725   1.549       .  S
C1721      C1724   1.556       .  S
C1721      C2113   1.522       .  S
C1722      C1726   1.526       .  S
C1722      C1728   1.530       .  S
C1722      C1727   1.560   1_455  S
C1722      C2109   1.527       .  S
C1723      C1731   1.370       .  A
C1724      C1735   1.392   1_455  A
C1725      C1739   1.391       .  A
C1726      C1729   1.379       .  A
C1727      C1733   1.390       .  A
C1728      C1736   1.366       .  A
C1729      N1730   1.353       .  A
C1729      H1742   1.078       .  S
N1730      N1819   1.405       .  S
C1731      H1732   1.079       .  S
C1733      N1734   1.369       .  A
C1733      H1743   1.081       .  S
C1735      H1741   1.081       .  S
C1736      H1738   1.080       .  S
N1737      C1739   1.361       .  A
C1739      H1740   1.082       .  S
Zr1744     O1745   2.440       .  S
Zr1744     O1746   2.480       .  S
Zr1744     O1747   2.461       .  S
Zr1744     O1750   2.504       .  S
Zr1744     O1752   2.390       .  S
Zr1744     O1753   2.373       .  S
Zr1744     O1754   2.432       .  S
Zr1744     O1755   2.417       .  S
O1745      H1801   0.991       .  S
O1745      H1809   0.990       .  S
O1746      C1766   1.292       .  A
O1747      C1768   1.290       .  A
O1748     Zr1758   2.375       .  S
O1748      C1767   1.273       .  A
O1749     Zr1757   2.408       .  S
O1749      C1768   1.283       .  A
O1750      C1767   1.299       .  A
O1751     Zr1759   2.405       .  S
O1751      C1766   1.277       .  A
O1752     Zr1757   2.409       .  S
O1752     Zr1759   2.365       .  S
O1753     Zr1758   2.410       .  S
O1753     Zr1759   2.390       .  S
O1753      H1788   0.966       .  S
O1754     Zr1757   2.422       .  S
O1754     Zr1774   2.407       .  S
O1754      H1791   0.965       .  S
O1755     Zr1758   2.396       .  S
O1755     Zr1774   2.425       .  S
Zr1756     O1781   2.451       .  S
Zr1756     O1775   2.385       .  S
Zr1756     O1783   2.422       .  S
Zr1756     O1771   2.402       .  S
Zr1756     O1762   2.399       .  S
Zr1756     O1763   2.414       .  S
Zr1756     O1764   2.367       .  S
Zr1756     O1765   2.403       .  S
Zr1757     O1776   2.436       .  S
Zr1757     O1769   2.435       .  S
Zr1757     O1770   2.487       .  S
Zr1757     O1763   2.388       .  S
Zr1757     O1764   2.389       .  S
Zr1758     O1760   2.435       .  S
Zr1758     O1782   2.438       .  S
Zr1758     O1784   2.416   1_455  S
Zr1758     O1762   2.382       .  S
Zr1758     O1765   2.395       .  S
Zr1759     O1785   2.434       .  S
Zr1759     O1786   2.437       .  S
Zr1759     O1761   2.440       .  S
Zr1759     O1762   2.365       .  S
Zr1759     O1763   2.392       .  S
O1760      H1797   0.990   1_455  S
O1761      H1792   0.990       .  S
O1761      H1806   0.990       .  S
O1763      H1789   0.964       .  S
O1764     Zr1774   2.389       .  S
O1765     Zr1774   2.366       .  S
O1765      H1790   0.965       .  S
C1766      C2105   1.489       .  S
C1767      C2114   1.486       .  S
C1768      C2097   1.478       .  S
O1769      H1805   0.990       .  S
O1770      C1772   1.294       .  A
O1771      C1772   1.277       .  A
C1772      C2101   1.481       .  S
O1773     Zr1774   2.435       .  S
O1773      H1802   0.990       .  S
Zr1774     O1777   2.436       .  S
Zr1774     O1778   2.437       .  S
Zr1774     O1779   2.477       .  S
O1775      C1780   1.265       .  A
O1776      H1793   0.990       .  S
O1776      H1808   0.990       .  S
O1777      H1794   0.990       .  S
O1778      H1798   0.990       .  S
O1778      H1807   0.990       .  S
O1779      C1780   1.283       .  A
C1780      C2110   1.484       .  S
O1781      H1800   0.991       .  S
O1781      H1804   0.990       .  S
O1782      H1796   0.990   1_455  S
O1782      H1803   0.990       .  S
O1783      C1787   1.271   1_455  A
O1784      C1787   1.268       .  A
O1785      H1795   0.990       .  S
O1786      H1799   0.990       .  S
C1787      C2126   1.460       .  S
C1810      C1812   1.533       .  S
C1810      C1814   1.546       .  S
C1810      C1813   1.563       .  S
C1810      C2102   1.525       .  S
C1811      C1815   1.521       .  S
C1811      C1817   1.548       .  S
C1811      C1816   1.553       .  S
C1811      C2106   1.528       .  S
C1812      C1820   1.381       .  A
C1813      C1824   1.394       .  A
C1814      C1828   1.389       .  A
C1815      C1818   1.366       .  A
C1816      C1822   1.396       .  A
C1817      C1825   1.384       .  A
C1818      H1831   1.079       .  S
N1819      C1820   1.358       .  A
C1820      H1821   1.080       .  S
C1822      H1832   1.081       .  S
N1823      C1824   1.369       .  A
C1824      H1830   1.080       .  S
C1825      H1827   1.083       .  S
N1826      C1828   1.361   1_545  A
N1826      C2093   1.450       .  S
C1828      H1829   1.082       .  S
C1833      C1835   1.543       .  S
C1833      C1837   1.535       .  S
C1833      C1836   1.556       .  S
C1833      C2085   1.525       .  S
C1834      C1838   1.527       .  S
C1834      C1840   1.540       .  S
C1834      C1839   1.546       .  S
C1834      C2089   1.522       .  S
C1835      C1843   1.383       .  A
C1835      C1838   1.388       .  A
C1836      C1847   1.393       .  A
C1836      C1839   1.406       .  A
C1837      C1851   1.375       .  A
C1837      C1840   1.397       .  A
C1838      C1841   1.377       .  A
C1839      C1845   1.386       .  A
C1840      C1848   1.379       .  A
C1841      N1842   1.351       .  A
C1841      H1854   1.080       .  S
N1842      C1843   1.349       .  A
N1842      N1931   1.410       .  S
C1843      H1844   1.076       .  S
C1845      N1846   1.360       .  A
C1845      H1855   1.081       .  S
N1846      C1847   1.365       .  A
N1846      N2047   1.426       .  S
C1847      H1853   1.081       .  S
C1848      N1849   1.365       .  A
C1848      H1850   1.081       .  S
N1849      C1851   1.360       .  A
C1851      H1852   1.081       .  S
Zr1856     O1857   2.437       .  S
Zr1856     O1858   2.431       .  S
Zr1856     O1859   2.479       .  S
Zr1856     O1862   2.489       .  S
Zr1856     O1864   2.393       .  S
Zr1856     O1865   2.389       .  S
Zr1856     O1867   2.414       .  S
O1857      H1913   0.990       .  S
O1857      H1921   0.990       .  S
O1858      C1878   1.284       .  A
O1859      C1880   1.294       .  A
O1860     Zr1870   2.397       .  S
O1860      C1879   1.273       .  A
O1861     Zr1869   2.407       .  S
O1862      C1879   1.296       .  A
O1863     Zr1871   2.456       .  S
O1863      C1878   1.286       .  A
O1864     Zr1871   2.366       .  S
O1865     Zr1870   2.398       .  S
O1865     Zr1871   2.364       .  S
O1865      H1900   0.965       .  S
O1866     Zr1869   2.408       .  S
O1866     Zr1886   2.396       .  S
O1866      H1903   0.965       .  S
O1867     Zr1870   2.398       .  S
Zr1868     O1893   2.443       .  S
Zr1868     O1887   2.431       .  S
Zr1868     O1895   2.400       .  S
Zr1868     O1883   2.433       .  S
Zr1868     O1875   2.414       .  S
Zr1868     O1876   2.374       .  S
Zr1868     O1877   2.397       .  S
Zr1869     O1888   2.437       .  S
Zr1869     O1881   2.435       .  S
Zr1869     O1882   2.456       .  S
Zr1869     O1875   2.387       .  S
Zr1869     O1876   2.397       .  S
Zr1870     O1872   2.434       .  S
Zr1870     O1894   2.442       .  S
Zr1870     O1896   2.399   1_565  S
Zr1870     O1874   2.306   1_565  S
Zr1871     O1897   2.435       .  S
Zr1871     O1898   2.435   1_565  S
Zr1871     O1873   2.440       .  S
Zr1871     O1874   2.309   1_565  S
O1872      H1909   0.990       .  S
O1873      H1904   0.990       .  S
O1873      H1918   0.990   1_565  S
O1875      H1901   0.965       .  S
O1876     Zr1886   2.387       .  S
O1877     Zr1886   2.357       .  S
O1877      H1902   0.966       .  S
C1878      C2077   1.487       .  S
C1879      C2086   1.473       .  S
C1880      C2118   1.491       .  S
O1881      H1917   0.990       .  S
O1882      C1884   1.288       .  A
O1883      C1884   1.283       .  A
C1884      C2081   1.480       .  S
O1885     Zr1886   2.439       .  S
O1885      H1914   0.991       .  S
Zr1886     O1889   2.438       .  S
Zr1886     O1890   2.440       .  S
Zr1886     O1891   2.459       .  S
O1887      C1892   1.285       .  A
O1888      H1905   0.990       .  S
O1888      H1920   0.990       .  S
O1889      H1906   0.990       .  S
O1890      H1910   0.990       .  S
O1890      H1919   0.989       .  S
O1891      C1892   1.287       .  A
C1892      C2090   1.487       .  S
O1893      H1912   0.991       .  S
O1893      H1916   0.991       .  S
O1894      H1908   0.990       .  S
O1894      H1915   0.990       .  S
O1895      C1899   1.261       .  A
O1897      H1907   0.990       .  S
C1899      C2073   1.452       .  S
C1922      C1924   1.526       .  S
C1922      C1926   1.549       .  S
C1922      C1925   1.557       .  S
C1922      C2082   1.523       .  S
C1923      C1927   1.531       .  S
C1923      C1929   1.554       .  S
C1923      C1928   1.550       .  S
C1923      C2078   1.528       .  S
C1924      C1932   1.372       .  A
C1924      C1927   1.378       .  A
C1925      C1936   1.395       .  A
C1925      C1928   1.396       .  A
C1926      C1940   1.390       .  A
C1926      C1929   1.412       .  A
C1927      C1930   1.376       .  A
C1928      C1934   1.390       .  A
C1929      C1937   1.388       .  A
C1930      N1931   1.360       .  A
C1930      H1943   1.080       .  S
N1931      C1932   1.354       .  A
C1932      H1933   1.080       .  S
C1934      N1935   1.364       .  A
C1934      H1944   1.081       .  S
N1935      C1936   1.370       .  A
N1935      N1958   1.431       .  S
C1936      H1942   1.081       .  S
C1937      N1938   1.361       .  A
C1937      H1939   1.082       .  S
N1938      C1940   1.358       .  A
N1938      C2122   1.454       .  S
C1940      H1941   1.080       .  S
C1945      C1947   1.522       .  S
C1945      C1949   1.539       .  S
C1945      C1948   1.565       .  S
C1945      C2065   1.532       .  S
C1946      C1950   1.530       .  S
C1946      C1952   1.530       .  S
C1946      C1951   1.556       .  S
C1946      C2069   1.521       .  S
C1947      C1955   1.364       .  A
C1947      C1950   1.379       .  A
C1948      C1959   1.394       .  A
C1948      C1951   1.404       .  A
C1949      C1963   1.379       .  A
C1949      C1952   1.397       .  A
C1950      C1953   1.380       .  A
C1951      C1957   1.389       .  A
C1952      C1960   1.371       .  A
C1953      N1954   1.358       .  A
C1953      H1966   1.080       .  S
N1954      C1955   1.350       .  A
N1954      N2043   1.406       .  S
C1955      H1956   1.078       .  S
C1957      N1958   1.366       .  A
C1957      H1967   1.081       .  S
N1958      C1959   1.371       .  A
C1959      H1965   1.081       .  S
C1960      N1961   1.358       .  A
C1960      H1962   1.081       .  S
N1961      C1963   1.364       .  A
C1963      H1964   1.081       .  S
Zr1968     O1969   2.437       .  S
Zr1968     O1970   2.464       .  S
Zr1968     O1971   2.484       .  S
Zr1968     O1974   2.522       .  S
Zr1968     O1976   2.394       .  S
Zr1968     O1977   2.377       .  S
Zr1968     O1979   2.412       .  S
O1969      H2025   0.990       .  S
O1969      H2033   0.990       .  S
O1970      C1990   1.290       .  A
O1971      C1992   1.295       .  A
O1972     Zr1982   2.377       .  S
O1972      C1991   1.272       .  A
O1973     Zr1981   2.439       .  S
O1974      C1991   1.304       .  A
O1975     Zr1983   2.392       .  S
O1975      C1990   1.276       .  A
O1976     Zr1983   2.376       .  S
O1977     Zr1982   2.400       .  S
O1977     Zr1983   2.382       .  S
O1977      H2012   0.967       .  S
O1978     Zr1981   2.415       .  S
O1978     Zr1998   2.422       .  S
O1978      H2015   0.965       .  S
O1979     Zr1982   2.402       .  S
Zr1980     O2005   2.441       .  S
Zr1980     O1999   2.367       .  S
Zr1980     O2007   2.425       .  S
Zr1980     O1995   2.383       .  S
Zr1980     O1987   2.387       .  S
Zr1980     O1988   2.375       .  S
Zr1980     O1989   2.384       .  S
Zr1981     O2000   2.438       .  S
Zr1981     O1993   2.434       .  S
Zr1981     O1994   2.481       .  S
Zr1981     O1987   2.387       .  S
Zr1981     O1988   2.390       .  S
Zr1982     O1984   2.435       .  S
Zr1982     O2006   2.439       .  S
Zr1982     O2008   2.415       .  S
Zr1982     O1986   2.410       .  S
Zr1983     O2009   2.435       .  S
Zr1983     O2010   2.434       .  S
Zr1983     O1985   2.441       .  S
Zr1983     O1986   2.386       .  S
O1984      H2021   0.990       .  S
O1985      H2016   0.990       .  S
O1985      H2030   0.989   1_565  S
O1987      H2013   0.966       .  S
O1988     Zr1998   2.367       .  S
O1989     Zr1998   2.348       .  S
O1989      H2014   0.966       .  S
C1990      C2057   1.477       .  S
C1991      C2066   1.494       .  S
C1992      C2094   1.499       .  S
O1993      H2029   0.990       .  S
O1994      C1996   1.293       .  A
O1995      C1996   1.274       .  A
C1996      C2061   1.473       .  S
O1997     Zr1998   2.436       .  S
O1997      H2026   0.991       .  S
Zr1998     O2001   2.435       .  S
Zr1998     O2002   2.439       .  S
Zr1998     O2003   2.507       .  S
O1999      C2004   1.273       .  A
O2000      H2017   0.990       .  S
O2000      H2032   0.990       .  S
O2001      H2018   0.990       .  S
O2002      H2022   0.990       .  S
O2002      H2031   0.990       .  S
O2003      C2004   1.298       .  A
C2004      C2070   1.479       .  S
O2005      H2024   0.990       .  S
O2005      H2028   0.991       .  S
O2006      H2020   0.990       .  S
O2006      H2027   0.990       .  S
O2007      C2011   1.273       .  A
O2009      H2019   0.990       .  S
C2011      C2074   1.447       .  S
C2034      C2036   1.535       .  S
C2034      C2038   1.539       .  S
C2034      C2037   1.553       .  S
C2034      C2062   1.521       .  S
C2035      C2039   1.525       .  S
C2035      C2041   1.537       .  S
C2035      C2040   1.545       .  S
C2035      C2058   1.518       .  S
C2036      C2044   1.382       .  A
C2036      C2039   1.385       .  A
C2037      C2048   1.387       .  A
C2037      C2040   1.393       .  A
C2038      C2052   1.380       .  A
C2038      C2041   1.412       .  A
C2039      C2042   1.367       .  A
C2040      C2046   1.389       .  A
C2041      C2049   1.379       .  A
C2042      N2043   1.351       .  A
C2042      H2055   1.079       .  S
N2043      C2044   1.352       .  A
C2044      H2045   1.079       .  S
C2046      N2047   1.364       .  A
C2046      H2056   1.081       .  S
N2047      C2048   1.366       .  A
C2048      H2054   1.081       .  S
C2049      N2050   1.353       .  A
C2049      H2051   1.083       .  S
N2050      C2052   1.354       .  A
N2050      C2098   1.437       .  S
C2052      H2053   1.081       .  S
C2057      C2058   1.357       .  D
C2057      H2059   1.087       .  S
C2058      H2060   1.086       .  S
C2061      C2062   1.338       .  D
C2061      H2063   1.088       .  S
C2062      H2064   1.085       .  S
C2065      C2066   1.372       .  D
C2065      H2067   1.086       .  S
C2066      H2068   1.086       .  S
C2069      C2070   1.336       .  D
C2069      H2071   1.086       .  S
C2070      H2072   1.089       .  S
C2073      C2074   1.330       .  D
C2073      H2075   1.084       .  S
C2074      H2076   1.086       .  S
C2077      C2078   1.350       .  D
C2077      H2079   1.087       .  S
C2078      H2080   1.085       .  S
C2081      C2082   1.357       .  D
C2081      H2083   1.084       .  S
C2082      H2084   1.086       .  S
C2085      C2086   1.347       .  D
C2085      H2087   1.086       .  S
C2086      H2088   1.086       .  S
C2089      C2090   1.355       .  D
C2089      H2091   1.087       .  S
C2090      H2092   1.086       .  S
C2093      C2094   1.358   1_545  D
C2093      H2095   1.087       .  S
C2094      H2096   1.085       .  S
C2097      C2098   1.349       .  D
C2097      H2099   1.085       .  S
C2098      H2100   1.087       .  S
C2101      C2102   1.341       .  D
C2101      H2103   1.086       .  S
C2102      H2104   1.085       .  S
C2105      C2106   1.360       .  D
C2105      H2107   1.087       .  S
C2106      H2108   1.085       .  S
C2109      C2110   1.336       .  D
C2109      H2111   1.086       .  S
C2110      H2112   1.088       .  S
C2113      C2114   1.365       .  D
C2113      H2115   1.086       .  S
C2114      H2116   1.087       .  S
C2117      C2118   1.356       .  D
C2118      H2120   1.085       .  S
C2121      C2122   1.360       .  D
C2121      H2123   1.084       .  S
C2122      H2124   1.087       .  S
C2125      C2126   1.341   1_455  D
C2125      H2127   1.077       .  S
C2126      H2128   1.084       .  S
C2129      C2130   1.357       .  D
C2129      H2131   1.087       .  S
C2130      H2132   1.086       .  S
C2133      C2134   1.334       .  D
C2133      H2135   1.088       .  S
C2134      H2136   1.085       .  S
C2137      C2138   1.347       .  D
C2137      H2139   1.086       .  S
C2138      H2140   1.085       .  S
C2141      C2142   1.331       .  D
C2141      H2143   1.086       .  S
C2142      H2144   1.088       .  S
