geometry optimzed in LAMMPS
_audit_creation_date              2020-11-30 
_audit_creation_method            'lammps2cif' 
_symmetry_space_group_name_H-M    'P1' 
_symmetry_Int_Tables_number       1 
_symmetry_cell_setting            triclinic 
loop_ 
_symmetry_equiv_pos_as_xyz 
  x,y,z 
_cell_length_a                    45.52802539178079 
_cell_length_b                    22.137043250127835 
_cell_length_c                    23.087129080455725 
_cell_angle_alpha                 90.01646911719939 
_cell_angle_beta                  89.99392538425664 
_cell_angle_gamma                 89.99430143581749 
loop_ 
_atom_site_label 
_atom_site_type_symbol 
_atom_site_fract_x 
_atom_site_fract_y 
_atom_site_fract_z 
_atom_site_charge 
O1          O  0.57455289  0.49972150  0.02382361    -0.69500
O2          O  0.65956220  0.52668333  0.03392532    -0.70480
O3          O  0.61524395  0.45317251  0.09548465    -0.59100
O4          O  0.61139056  0.57434005  0.96452376    -0.67510
O5          O  0.60414077  0.64674337  0.02971915    -0.67060
O6          O  0.61159872  0.52817640  0.15886901    -0.58310
O7          O  0.65354530  0.60246754  0.09595002    -0.70820
O8          O  0.56804995  0.57089358  0.09106734    -0.69600
Cu9        Cu  0.61638596  0.51107029  0.02711623     1.04560
Cu10       Cu  0.60980544  0.58995084  0.09602438     1.04330
C11         C  0.55825890  0.52940973  0.05798467     0.96700
C12         C  0.67016654  0.56884391  0.06519260     0.95840
C13         C  0.60712038  0.47311632  0.14513375     0.87990
C14         C  0.60189693  0.62696427  0.97805076     0.94260
O15         O  0.42804053  0.57093319  0.09158473    -0.69500
O16         O  0.34257659  0.60297934  0.09666767    -0.70480
O17         O  0.38446326  0.52844755  0.15947846    -0.59100
O18         O  0.39201014  0.64700904  0.03034660    -0.67510
O19         O  0.38464251  0.57466955  0.96514420    -0.67060
O20         O  0.38070666  0.45347802  0.09608534    -0.58310
O21         O  0.33644979  0.52723914  0.03464098    -0.70820
O22         O  0.42141322  0.49982464  0.02433313    -0.69600
Cu23       Cu  0.38630587  0.59022413  0.09664677     1.04560
Cu24       Cu  0.37960041  0.51140021  0.02773205     1.04330
C25         C  0.43776541  0.52942831  0.05843913     0.96700
C26         C  0.32590503  0.56944448  0.06593850     0.95840
C27         C  0.38887190  0.47336749  0.14572349     0.87990
C28         C  0.39420280  0.62724058  0.97866479     0.94260
C29         C  0.45336440  0.71573739  0.87298636     0.00960
C30         C  0.45290185  0.40037343  0.25193285     0.00960
N31         N  0.30479715  0.57040531  0.53075790    -0.23840
N32         N  0.30662444  0.60236017  0.57904595    -0.31700
C33         C  0.27949871  0.61469075  0.59858948     0.04500
C34         C  0.25963928  0.58925400  0.56092945     0.10520
C35         C  0.27619352  0.56160790  0.51821634    -0.02570
H36         H  0.27467842  0.64008118  0.63749704     0.11190
H37         H  0.26812247  0.53683856  0.48108329     0.12390
Cu38       Cu  0.34553094  0.62665425  0.61803505     0.44170
Cu39       Cu  0.34180349  0.53974229  0.48612263     0.41990
Cu40       Cu  0.41252736  0.57193123  0.55656432     0.43880
N41         N  0.38611452  0.64217425  0.65453860    -0.31230
N42         N  0.41097829  0.62156338  0.63256945    -0.25480
C43         C  0.43321420  0.63642742  0.66828122    -0.01580
C44         C  0.42153797  0.66802497  0.71442816     0.10630
C45         C  0.39172718  0.67069638  0.70464777     0.04430
H46         H  0.45592419  0.62361359  0.66195422     0.12080
H47         H  0.37519219  0.69002897  0.73277001     0.11160
N48         N  0.40810746  0.52557338  0.47908219    -0.32680
N49         N  0.38272468  0.51414905  0.45325242    -0.24860
C50         C  0.38807664  0.48484958  0.40321457    -0.00100
C51         C  0.41810192  0.47768225  0.39768065     0.08510
C52         C  0.43016033  0.50389965  0.44628539     0.06610
H53         H  0.37136913  0.47052784  0.37283212     0.11710
H54         H  0.45324922  0.50780335  0.45675870     0.10550
C55         C  0.45308217  0.90045573  0.89638705     0.00960
C56         C  0.45332464  0.21548301  0.27571607     0.00960
N57         N  0.30513929  0.07103447  0.61932438    -0.23840
N58         N  0.30634467  0.10239722  0.57061523    -0.31700
C59         C  0.27890882  0.11403923  0.55227943     0.04500
C60         C  0.25959953  0.08870978  0.59123039     0.10520
C61         C  0.27676337  0.06191329  0.63335067    -0.02570
H62         H  0.27349473  0.13880529  0.51331870     0.11190
H63         H  0.26926285  0.03739554  0.67109059     0.12390
Cu64       Cu  0.34500540  0.12657725  0.52986619     0.44170
Cu65       Cu  0.34239748  0.04107906  0.66288316     0.41990
Cu66       Cu  0.41253548  0.07240392  0.59195091     0.43880
N67         N  0.38582784  0.14205312  0.49354878    -0.31230
N68         N  0.41069096  0.12177099  0.51586132    -0.25480
C69         C  0.43303183  0.13687048  0.48051233    -0.01580
C70         C  0.42150262  0.16830525  0.43419579     0.10630
C71         C  0.39161337  0.17061627  0.44349415     0.04430
H72         H  0.45575359  0.12439118  0.48726410     0.12080
H73         H  0.37516505  0.18986716  0.41513888     0.11160
N74         N  0.40847326  0.02620625  0.66954777    -0.32680
N75         N  0.38311199  0.01511856  0.69552783    -0.24860
C76         C  0.38837740  0.98584570  0.74553664    -0.00100
C77         C  0.41835500  0.97832263  0.75095091     0.08510
C78         C  0.43049236  0.00430571  0.70228017     0.06610
H79         H  0.37163899  0.97178319  0.77596399     0.11710
H80         H  0.45358583  0.00787392  0.69172969     0.10550
O81         O  0.56798337  0.08324648  0.07047416    -0.69500
O82         O  0.65380518  0.10074352  0.04910127    -0.70480
O83         O  0.60671689  0.03308260  0.99337694    -0.59100
O84         O  0.60916696  0.15159270  0.12315333    -0.67510
O85         O  0.61408113  0.07672480  0.18649091    -0.67060
O86         O  0.61294676  0.95653310  0.05435178    -0.58310
O87         O  0.65983109  0.02600014  0.11223608    -0.70820
O88         O  0.57484139  0.00610500  0.13124153    -0.69600
Cu89       Cu  0.60989871  0.09458551  0.05644282     1.04560
Cu90       Cu  0.61664902  0.01356128  0.12297708     1.04330
C91         C  0.55833611  0.04366424  0.10578126     0.96700
C92         C  0.67046931  0.06675973  0.07938524     0.95840
C93         C  0.60378548  0.97727106  0.00575170     0.87990
C94         C  0.60554649  0.13034141  0.17395150     0.94260
O95         O  0.42129829  0.00662259  0.13459311    -0.69500
O96         O  0.33634067  0.02571086  0.11339186    -0.70480
O97         O  0.38378609  0.95659973  0.05661552    -0.59100
O98         O  0.38152413  0.07694342  0.18868992    -0.67510
O99         O  0.38647396  0.15177839  0.12533395    -0.67060
O100        O  0.39014019  0.03323371  0.99579129    -0.58310
O101        O  0.34254619  0.10040735  0.05026990    -0.70820
O102        O  0.42819705  0.08381594  0.07391452    -0.69600
Cu103      Cu  0.37950118  0.01365780  0.12522026     1.04560
Cu104      Cu  0.38637804  0.09470560  0.05875918     1.04330
C105        C  0.43781472  0.04431881  0.10934148     0.96700
C106        C  0.32579545  0.06633659  0.08025821     0.95840
C107        C  0.39304038  0.97740219  0.00809071     0.87990
C108        C  0.39001930  0.13058926  0.17616130     0.94260
C109        C  0.54318038  0.90029658  0.89535120     0.00960
C110        C  0.54265018  0.21524735  0.27467172     0.00960
N111        N  0.69099628  0.07056623  0.61852143    -0.23840
N112        N  0.68985157  0.10192417  0.56980358    -0.31700
C113        C  0.71730930  0.11356274  0.55159272     0.04500
C114        C  0.73657006  0.08823683  0.59063358     0.10520
C115        C  0.71935503  0.06144505  0.63267842    -0.02570
H116        H  0.72277121  0.13832779  0.51265655     0.11190
H117        H  0.72680950  0.03693449  0.67045710     0.12390
Cu118      Cu  0.65124868  0.12611451  0.52886257     0.44170
Cu119      Cu  0.65368434  0.04062454  0.66191672     0.41990
Cu120      Cu  0.58364376  0.07209127  0.59072760     0.43880
N121        N  0.61047438  0.14158004  0.49235264    -0.31230
N122        N  0.58558563  0.12136273  0.51460852    -0.25480
C123        C  0.56328215  0.13643812  0.47917227    -0.01580
C124        C  0.57486201  0.16777860  0.43285078     0.10630
C125        C  0.60474288  0.17007589  0.44223827     0.04430
H126        H  0.54054999  0.12401652  0.48587867     0.12080
H127        H  0.62121966  0.18928804  0.41392146     0.11160
N128        N  0.58759664  0.02583482  0.66829600    -0.32680
N129        N  0.61292533  0.01468351  0.69436614    -0.24860
C130        C  0.60759397  0.98536702  0.74432241    -0.00100
C131        C  0.57760839  0.97787807  0.74960433     0.08510
C132        C  0.56553276  0.00393497  0.70091515     0.06610
H133        H  0.62429286  0.97126222  0.77481302     0.11710
H134        H  0.54245213  0.00756176  0.69027969     0.10550
C135        C  0.54268291  0.71551983  0.87255502     0.00960
C136        C  0.54312876  0.40022519  0.25153432     0.00960
N137        N  0.69124579  0.57076831  0.53027118    -0.24080
N138        N  0.68936851  0.60276392  0.57852859    -0.31700
C139        C  0.71647362  0.61513193  0.59814569     0.04500
C140        C  0.73637474  0.58968006  0.56056752     0.10520
C141        C  0.71986424  0.56198350  0.51782510    -0.02570
H142        H  0.72125156  0.64054631  0.63705614     0.11190
H143        H  0.72797527  0.53717757  0.48074350     0.12390
Cu144      Cu  0.65042424  0.62701516  0.61741538     0.44170
Cu145      Cu  0.65427909  0.53999954  0.48557185     0.41990
Cu146      Cu  0.58350233  0.57205023  0.55591722     0.43880
N147        N  0.60981987  0.64235325  0.65391518    -0.31230
N148        N  0.58498216  0.62164543  0.63193604    -0.25480
C149        C  0.56272899  0.63633013  0.66768537    -0.01580
C150        C  0.57436766  0.66790950  0.71386987     0.10630
C151        C  0.60417312  0.67076318  0.70406939     0.04430
H152        H  0.54003787  0.62338413  0.66136836     0.12080
H153        H  0.62068546  0.69011732  0.73221956     0.11160
N154        N  0.58798564  0.52562343  0.47849591    -0.32680
N155        N  0.61338321  0.51424070  0.45269072    -0.24860
C156        C  0.60806267  0.48482709  0.40270176    -0.00100
C157        C  0.57804324  0.47753823  0.39718444     0.08510
C158        C  0.56595673  0.50381130  0.44573896     0.06610
H159        H  0.62478613  0.47049980  0.37234700     0.11710
H160        H  0.54286355  0.50764855  0.45621022     0.10550
O161        O  0.15424566  0.57105187  0.59896092    -0.69500
O162        O  0.06836129  0.58686358  0.57897877    -0.70480
O163        O  0.10957224  0.51931933  0.52550999    -0.59100
O164        O  0.10706244  0.63798265  0.65530458    -0.67510
O165        O  0.11268751  0.71450721  0.59408154    -0.67060
O166        O  0.11405133  0.59421181  0.46207720    -0.58310
O167        O  0.07460212  0.66390994  0.51784040    -0.70820
O168        O  0.15976795  0.64589596  0.53575069    -0.69600
Cu169      Cu  0.11032165  0.57638274  0.59224775     1.04560
Cu170      Cu  0.11648131  0.65742585  0.52550748     1.04330
C171        C  0.17067112  0.60533498  0.56850072     0.96700
C172        C  0.05837440  0.62624471  0.54386523     0.95840
C173        C  0.10571203  0.54050815  0.47474543     0.87990
C174        C  0.10376689  0.69369916  0.64282976     0.94260
O175        O  0.92144143  0.66392292  0.51744829    -0.69500
O176        O  0.83626951  0.64621654  0.53555713    -0.70480
O177        O  0.88344657  0.71467700  0.59379654    -0.59100
O178        O  0.88191811  0.59433765  0.46180122    -0.67510
O179        O  0.88635034  0.51945072  0.52525101    -0.67060
O180        O  0.88902983  0.63813794  0.65501397    -0.58310
O181        O  0.84175507  0.57136924  0.59877495    -0.70820
O182        O  0.92764507  0.58686587  0.57858836    -0.69600
Cu183      Cu  0.87956391  0.65758891  0.52522121     1.04560
Cu184      Cu  0.88568315  0.57653845  0.59196606     1.04330
C185        C  0.93765110  0.62622001  0.54346659     0.96700
C186        C  0.82534512  0.60569190  0.56832145     0.95840
C187        C  0.89237069  0.69384113  0.64253324     0.87990
C188        C  0.89022134  0.54060828  0.47447830     0.94260
C189        C  0.95298383  0.77048709  0.75342756     0.00960
C190        C  0.95328406  0.45556033  0.37419244     0.00960
N191        N  0.80474970  0.60204934  0.03128936    -0.23840
N192        N  0.80593462  0.57071332  0.08002107    -0.31700
C193        C  0.77849004  0.55937740  0.09850131     0.04500
C194        C  0.75918905  0.58489069  0.05964426     0.10520
C195        C  0.77637404  0.61145109  0.01740319    -0.02570
H196        H  0.77306366  0.53461147  0.13745609     0.11190
H197        H  0.76888599  0.63592340  0.97962741     0.12390
Cu198      Cu  0.84457869  0.54602491  0.12060232     0.44170
Cu199      Cu  0.84204750  0.63149214  0.98743388     0.41990
Cu200      Cu  0.91215514  0.59933743  0.05820426     0.43880
N201        N  0.88539193  0.53015642  0.15686172    -0.31230
N202        N  0.91028153  0.55013908  0.13441495    -0.25480
C203        C  0.93262034  0.53488218  0.16970734    -0.01580
C204        C  0.92106552  0.50366731  0.21614488     0.10630
C205        C  0.89115936  0.50163407  0.20695431     0.04430
H206        H  0.95536681  0.54708220  0.16281912     0.12080
H207        H  0.87469435  0.48257247  0.23539106     0.11160
N208        N  0.90817567  0.64556116  0.98058500    -0.32680
N209        N  0.88283590  0.65695337  0.95464548    -0.24860
C210        C  0.88817498  0.68618586  0.90463319    -0.00100
C211        C  0.91817653  0.69337185  0.89918070     0.08510
C212        C  0.93024677  0.66721799  0.94783089     0.06610
H213        H  0.87146901  0.70046307  0.87423182     0.11710
H214        H  0.95333183  0.66337841  0.95835879     0.10550
C215        C  0.95339343  0.95540399  0.77562537     0.00960
C216        C  0.95293739  0.27044346  0.39672001     0.00960
N217        N  0.80457389  0.10148207  0.11748531    -0.23840
N218        N  0.80642164  0.06953343  0.06919101    -0.31700
C219        C  0.77930397  0.05749655  0.04944154     0.04500
C220        C  0.75942206  0.08313079  0.08695080     0.10520
C221        C  0.77596122  0.11056321  0.12981457    -0.02570
H222        H  0.77450375  0.03217446  0.01048650     0.11190
H223        H  0.76787288  0.13538769  0.16690408     0.12390
Cu224      Cu  0.84534694  0.04493468  0.03036668     0.44170
Cu225      Cu  0.84157717  0.13184709  0.16237943     0.41990
Cu226      Cu  0.91231142  0.09938471  0.09203702     0.43880
N227        N  0.88595151  0.02935232  0.99389167    -0.31230
N228        N  0.91080695  0.04987726  0.01595174    -0.25480
C229        C  0.93306419  0.03505588  0.98025975    -0.01580
C230        C  0.92141415  0.00358366  0.93401432     0.10630
C231        C  0.89159325  0.00092946  0.94373362     0.04430
H232        H  0.95577401  0.04781052  0.98667276     0.12080
H233        H  0.87507319  0.98166967  0.91554201     0.11160
N234        N  0.90789887  0.14576157  0.16951377    -0.32680
N235        N  0.88252060  0.15728758  0.19533660    -0.24860
C236        C  0.88789670  0.18660639  0.24536053    -0.00100
C237        C  0.91793196  0.19368424  0.25087911     0.08510
C238        C  0.92996654  0.16738278  0.20228820     0.06610
H239        H  0.87120016  0.20101172  0.27573903     0.11710
H240        H  0.95305207  0.16339142  0.19180531     0.10550
O241        O  0.15951586  0.14569350  0.61574493    -0.69500
O242        O  0.07431044  0.17061322  0.62288013    -0.70480
O243        O  0.11105140  0.09710742  0.68370721    -0.59100
O244        O  0.11534069  0.21815383  0.55280082    -0.67510
O245        O  0.11232297  0.14309759  0.48936122    -0.67060
O246        O  0.10472204  0.02431764  0.61854853    -0.58310
O247        O  0.06865648  0.09894311  0.55585694    -0.70820
O248        O  0.15432849  0.06985677  0.55348791    -0.69600
Cu249      Cu  0.11621118  0.16031027  0.62113263     1.04560
Cu250      Cu  0.11052759  0.08117072  0.55219577     1.04330
C251        C  0.17055356  0.10381202  0.58470803     0.96700
C252        C  0.05840690  0.14037044  0.58843672     0.95840
C253        C  0.10196647  0.04421457  0.67010153     0.87990
C254        C  0.10747517  0.19805826  0.50306333     0.94260
O255        O  0.84187911  0.06951455  0.55325104    -0.69500
O256        O  0.92752924  0.09877032  0.55578764    -0.70480
O257        O  0.89147023  0.02410294  0.61843466    -0.59100
O258        O  0.88388170  0.14282193  0.48919303    -0.67510
O259        O  0.88077105  0.21788962  0.55260646    -0.67060
O260        O  0.88506172  0.09690795  0.68355344    -0.58310
O261        O  0.92179468  0.17046133  0.62276894    -0.70820
O262        O  0.83660692  0.14535436  0.61548197    -0.69600
Cu263      Cu  0.88567252  0.08091673  0.55204879     1.04560
Cu264      Cu  0.87989931  0.16006907  0.62094920     1.04330
C265        C  0.82561417  0.10344453  0.58442803     0.96700
C266        C  0.93773549  0.14023443  0.58836715     0.95840
C267        C  0.89419084  0.04403415  0.66998175     0.87990
C268        C  0.88868193  0.19779907  0.50289163     0.94260
C269        C  0.04315886  0.77051151  0.75361238     0.00960
C270        C  0.04268033  0.45561003  0.37432070     0.00960
N271        N  0.19133895  0.60261768  0.03190666    -0.23840
N272        N  0.19014357  0.57128774  0.08064120    -0.31700
C273        C  0.21758235  0.56004471  0.09920061     0.04500
C274        C  0.23689262  0.58561616  0.06039491     0.10520
C275        C  0.21971833  0.61210729  0.01809787    -0.02570
H276        H  0.22299808  0.53528644  0.13816509     0.11190
H277        H  0.22721635  0.63657806  0.98032811     0.12390
Cu278      Cu  0.15149330  0.54645817  0.12110365     0.44170
Cu279      Cu  0.15404552  0.63191618  0.98792962     0.41990
Cu280      Cu  0.08391924  0.59955620  0.05850232     0.43880
N281        N  0.11066406  0.53045651  0.15721874    -0.31230
N282        N  0.08577700  0.55036048  0.13469963    -0.25480
C283        C  0.06342087  0.53503020  0.16992097    -0.01580
C284        C  0.07496403  0.50385101  0.21638483     0.10630
C285        C  0.10487842  0.50191240  0.20728935     0.04430
H286        H  0.04066999  0.54716066  0.16296850     0.12080
H287        H  0.12133487  0.48290536  0.23577726     0.11160
N288        N  0.08791015  0.64577880  0.98089863    -0.32680
N289        N  0.11325797  0.65724742  0.95501584    -0.24860
C290        C  0.10792497  0.68645269  0.90498533    -0.00100
C291        C  0.07791897  0.69353835  0.89946688     0.08510
C292        C  0.06584107  0.66735462  0.94809548     0.06610
H293        H  0.12463775  0.70077970  0.87461721     0.11710
H294        H  0.04275289  0.66343834  0.95857571     0.10550
C295        C  0.04278719  0.95544642  0.77569980     0.00960
C296        C  0.04322676  0.27049060  0.39675001     0.00960
N297        N  0.11377476  0.15749724  0.19530802    -0.23840
N298        N  0.08839617  0.14592016  0.16952128    -0.31700
C299        C  0.06632343  0.16747318  0.20233939     0.04500
C300        C  0.07835022  0.19378448  0.25092680     0.10520
C301        C  0.10839129  0.18678180  0.24535605    -0.02570
H302        H  0.04323800  0.16343511  0.19188440     0.11190
H303        H  0.12508688  0.20122187  0.27571232     0.12390
Cu304      Cu  0.08398342  0.09956715  0.09202313     0.44170
Cu305      Cu  0.15472273  0.13215549  0.16223556     0.41990
Cu306      Cu  0.15091148  0.04527492  0.03013775     0.43880
N307        N  0.08544793  0.05007328  0.01591442    -0.31230
N308        N  0.11029793  0.02959744  0.99377242    -0.25480
C309        C  0.10463586  0.00115548  0.94363546    -0.01580
C310        C  0.07480549  0.00374752  0.93401140     0.10630
C311        C  0.06317266  0.03520273  0.98029541     0.04430
H312        H  0.12114635  0.98192240  0.91539475     0.12080
H313        H  0.04046015  0.04790751  0.98678513     0.11160
N314        N  0.18983964  0.06986508  0.06891653    -0.32680
N315        N  0.19170436  0.10177810  0.11723060    -0.24860
C316        C  0.22032292  0.11068854  0.12959648    -0.00100
C317        C  0.23684593  0.08318207  0.08674134     0.08510
C318        C  0.21695037  0.05768605  0.04919229     0.06610
H319        H  0.22842802  0.13537145  0.16675380     0.11710
H320        H  0.22173642  0.03227950  0.01027805     0.10550
C321        C  0.05183549  0.24272336  0.34148051    -0.09820
C322        C  0.06282670  0.22042164  0.29889452    -0.11380
C323        C  0.05049531  0.96997268  0.83568883    -0.09820
C324        C  0.05999068  0.98441040  0.88241602    -0.11380
C325        C  0.04523555  0.39021414  0.38297624    -0.09820
C326        C  0.04540874  0.33617238  0.38993664    -0.11380
C327        C  0.05985990  0.48408664  0.26754498    -0.09820
C328        C  0.05008551  0.46963413  0.31406009    -0.11380
C329        C  0.04576507  0.83611352  0.76017936    -0.09820
C330        C  0.04566939  0.89014267  0.76708516    -0.11380
C331        C  0.05183650  0.74262493  0.80869769    -0.09820
C332        C  0.06255578  0.72020693  0.85142954    -0.11380
C333        C  0.08650964  0.23193583  0.46799622    -0.09820
C334        C  0.06552350  0.25056349  0.44013731    -0.11380
C335        C  0.06427204  0.98657277  0.73792549    -0.09820
C336        C  0.08358225  0.01075658  0.70990403    -0.11380
C337        C  0.01316845  0.17086407  0.63610080    -0.09900
C338        C  0.02795623  0.15356749  0.58574150     0.12250
C339        C  0.01314651  0.14382827  0.53365599    -0.09900
C340        C  0.98301510  0.14379289  0.53364020    -0.09900
C341        C  0.96817879  0.15349750  0.58570972     0.12250
C342        C  0.98293517  0.17082813  0.63608496    -0.09900
H343        H  0.02481788  0.17950651  0.67619576     0.16240
H344        H  0.02481356  0.13283692  0.49409564     0.16240
H345        H  0.97137024  0.13277477  0.49406664     0.16240
H346        H  0.97126422  0.17944294  0.67616623     0.16240
C347        C  0.01160588  0.25606078  0.41011516    -0.09820
C348        C  0.98456162  0.25606981  0.41011335    -0.11380
C349        C  0.94438711  0.24267444  0.34143345    -0.09820
C350        C  0.93343844  0.22035286  0.29882883    -0.11380
C351        C  0.93063403  0.25041905  0.44005427    -0.09820
C352        C  0.90964487  0.23172350  0.46786330    -0.11380
C353        C  0.01150413  0.97173335  0.76507063    -0.09820
C354        C  0.98467704  0.97171179  0.76503592    -0.11380
C355        C  0.94567692  0.96989320  0.83561592    -0.09820
C356        C  0.93619975  0.98429386  0.88236904    -0.11380
C357        C  0.93190941  0.98653302  0.73785661    -0.09820
C358        C  0.91258946  0.01065634  0.70981634    -0.11380
C359        C  0.98451842  0.47273939  0.38573326    -0.09820
C360        C  0.01142925  0.47273768  0.38578768    -0.11380
C361        C  0.95068799  0.33612282  0.38991445    -0.09820
C362        C  0.95077503  0.39016237  0.38291198    -0.11380
C363        C  0.94590707  0.46952055  0.31389496    -0.09820
C364        C  0.93614722  0.48393931  0.26735364    -0.11380
C365        C  0.98459869  0.75665215  0.74081178    -0.09820
C366        C  0.01155779  0.75667091  0.74088617    -0.11380
C367        C  0.95051188  0.89010796  0.76697818    -0.09820
C368        C  0.95038746  0.83608509  0.76003739    -0.11380
C369        C  0.94426662  0.74256673  0.80847270    -0.09820
C370        C  0.93354208  0.72010338  0.85117823    -0.11380
C371        C  0.91023099  0.50876736  0.43626448    -0.09820
C372        C  0.93083963  0.48600406  0.41060530    -0.11380
C373        C  0.93147609  0.74972110  0.70913917    -0.09820
C374        C  0.91161695  0.72953724  0.67936858    -0.11380
C375        C  0.08569170  0.50874036  0.43651566    -0.09820
C376        C  0.06508872  0.48604053  0.41080611    -0.11380
C377        C  0.08455341  0.72945673  0.67966828    -0.09820
C378        C  0.06469348  0.74969684  0.70940160    -0.11380
C379        C  0.98297176  0.57187785  0.52955777    -0.09900
C380        C  0.96816517  0.62696123  0.53205692     0.12250
C381        C  0.98288232  0.68213421  0.52793246    -0.09900
C382        C  0.01315026  0.68214505  0.52809098    -0.09900
C383        C  0.02786946  0.62698331  0.53237090     0.12250
C384        C  0.01308270  0.57188903  0.52972107    -0.09900
H385        H  0.97128749  0.52924725  0.53053610     0.16240
H386        H  0.97112626  0.72466714  0.52892922     0.16240
H387        H  0.02489424  0.72468453  0.52918180     0.16240
H388        H  0.02477441  0.52926510  0.53079703     0.16240
C389        C  0.76779777  0.59271985  0.56528105    -0.09820
C390        C  0.79409268  0.59776307  0.56893565    -0.11380
C391        C  0.56259803  0.45068135  0.34926982    -0.09820
C392        C  0.55169586  0.42818921  0.30670949    -0.11380
C393        C  0.55023666  0.70123815  0.81246013    -0.09820
C394        C  0.55961877  0.68700764  0.76559775    -0.11380
C395        C  0.79441850  0.09463410  0.58521730    -0.09820
C396        C  0.76806673  0.09025138  0.58783518    -0.11380
C397        C  0.54518829  0.28058451  0.26571167    -0.09820
C398        C  0.54533968  0.33458752  0.25854437    -0.11380
C399        C  0.55984075  0.18731912  0.38154511    -0.09820
C400        C  0.55009875  0.20153857  0.33495396    -0.11380
C401        C  0.54575340  0.83474466  0.88850702    -0.09820
C402        C  0.54560063  0.78076112  0.88138116    -0.11380
C403        C  0.55167336  0.92840079  0.84028190    -0.09820
C404        C  0.56227384  0.95100657  0.79754196    -0.11380
C405        C  0.26827557  0.08000756  0.08212065    -0.09820
C406        C  0.29457388  0.07471146  0.07880805    -0.11380
C407        C  0.70169185  0.07524848  0.07849764    -0.09820
C408        C  0.72798942  0.08034120  0.08213972    -0.11380
C409        C  0.58559087  0.16193472  0.21243591    -0.09820
C410        C  0.56501913  0.18464419  0.23823417    -0.11380
C411        C  0.56482043  0.92093316  0.93937977    -0.09820
C412        C  0.58468591  0.94123192  0.96901361    -0.11380
C413        C  0.51327499  0.09801208  0.12272232    -0.09900
C414        C  0.52794752  0.04288014  0.11859809     0.12250
C415        C  0.51321284  0.98776263  0.12323999    -0.09900
C416        C  0.48293872  0.98794196  0.12476566    -0.09900
C417        C  0.46826134  0.04324112  0.12162060     0.12250
C418        C  0.48317073  0.09819324  0.12432381    -0.09900
H419        H  0.52500619  0.14058152  0.12152206     0.16240
H420        H  0.52489029  0.94518012  0.12119636     0.16240
H421        H  0.47111828  0.94549513  0.12359561     0.16240
H422        H  0.47153819  0.14090022  0.12405811     0.16240
C423        C  0.22810524  0.09070884  0.58828771    -0.09820
C424        C  0.20175394  0.09505720  0.58557601    -0.11380
C425        C  0.48449226  0.19813440  0.26380039    -0.09820
C426        C  0.51139661  0.19807305  0.26345161    -0.11380
C427        C  0.43654938  0.18782533  0.38289864    -0.09820
C428        C  0.44618713  0.20198440  0.33619821    -0.11380
C429        C  0.43072619  0.18485545  0.23988901    -0.09820
C430        C  0.41002749  0.16214507  0.21452037    -0.11380
C431        C  0.48470114  0.91414119  0.90884418    -0.09820
C432        C  0.51164585  0.91411030  0.90851538    -0.11380
C433        C  0.44431230  0.92874853  0.84157323    -0.09820
C434        C  0.43364004  0.95141934  0.79893467    -0.11380
C435        C  0.41202750  0.94131560  0.97112050    -0.09820
C436        C  0.43171497  0.92102518  0.94099486    -0.11380
C437        C  0.22821373  0.59228710  0.56553311    -0.09820
C438        C  0.20191792  0.59734501  0.56912330    -0.11380
C439        C  0.48449052  0.41462651  0.23829087    -0.09820
C440        C  0.51152328  0.41459247  0.23816145    -0.11380
C441        C  0.45066636  0.33476431  0.25916273    -0.09820
C442        C  0.45079696  0.28079570  0.26657119    -0.11380
C443        C  0.44443364  0.42849201  0.30709917    -0.09820
C444        C  0.43356508  0.45096272  0.34970947    -0.11380
C445        C  0.48461729  0.69926752  0.88355005    -0.09820
C446        C  0.51143718  0.69920488  0.88341299    -0.11380
C447        C  0.45043187  0.83492709  0.88937777    -0.09820
C448        C  0.45051833  0.78097010  0.88202813    -0.11380
C449        C  0.44569502  0.70161066  0.81291362    -0.09820
C450        C  0.43627515  0.68732100  0.76609917    -0.11380
C451        C  0.26839735  0.58365264  0.06336454    -0.09820
C452        C  0.29474894  0.57901245  0.06583537    -0.11380
C453        C  0.43058303  0.42014447  0.20855850    -0.09820
C454        C  0.40965417  0.43894109  0.18066658    -0.11380
C455        C  0.41251906  0.66037143  0.93854231    -0.09820
C456        C  0.43184522  0.68446135  0.91052040    -0.11380
C457        C  0.70133133  0.57827592  0.06502753    -0.09820
C458        C  0.72768388  0.58288768  0.06256178    -0.11380
C459        C  0.58631609  0.43879833  0.18012660    -0.09820
C460        C  0.56539369  0.42005304  0.20807304    -0.11380
C461        C  0.56424512  0.68427184  0.91001088    -0.09820
C462        C  0.58358425  0.66015415  0.93797233    -0.11380
C463        C  0.51312456  0.52197457  0.11256170    -0.09900
C464        C  0.52789180  0.51541305  0.05998654     0.12250
C465        C  0.51309545  0.50104148  0.00880702    -0.09900
C466        C  0.48283426  0.50101880  0.00893104    -0.09900
C467        C  0.46813071  0.51536862  0.06023150     0.12250
C468        C  0.48299722  0.52195189  0.11268553    -0.09900
H469        H  0.52482813  0.53081100  0.15257114     0.16240
H470        H  0.52475493  0.49495192  0.96828760     0.16240
H471        H  0.47109941  0.49492454  0.96850185     0.16240
H472        H  0.47136853  0.53078465  0.15278572     0.16240
loop_ 
_geom_bond_atom_site_label_1 
_geom_bond_atom_site_label_2 
_geom_bond_distance 
_geom_bond_site_symmetry_2 
_ccdc_geom_bond_type 
O1           Cu9   1.923       .  S
O1           C11   1.266       .  A
O2           Cu9   2.002       .  S
O2           C12   1.275       .  A
O3           Cu9   2.034       .  S
O3           C13   1.283       .  A
O4           Cu9   2.026   1_556  S
O4           C14   1.281       .  A
O5          Cu10   1.998       .  S
O5           C14   1.275   1_554  A
O6          Cu10   1.996       .  S
O6           C13   1.276       .  A
O7          Cu10   2.011       .  S
O7           C12   1.277       .  A
O8          Cu10   1.951       .  S
O8           C11   1.275       .  A
Cu9         Cu10   2.381       .  S
C11         C464   1.418       .  S
C12         C457   1.434       .  S
C13         C459   1.459       .  S
C14         C462   1.446       .  S
O15         Cu23   1.951       .  S
O15          C25   1.275       .  A
O16         Cu23   2.011       .  S
O16          C26   1.277       .  A
O17         Cu23   1.996       .  S
O17          C27   1.276       .  A
O18         Cu23   1.998       .  S
O18          C28   1.275   1_554  A
O19         Cu24   2.026   1_556  S
O19          C28   1.281       .  A
O20         Cu24   2.034       .  S
O20          C27   1.283       .  A
O21         Cu24   2.002       .  S
O21          C26   1.275       .  A
O22         Cu24   1.922       .  S
O22          C25   1.266       .  A
Cu23        Cu24   2.381       .  S
C25         C467   1.418       .  S
C26         C452   1.434       .  S
C27         C454   1.459       .  S
C28         C455   1.446       .  S
C29         C445   1.489       .  S
C29         C448   1.465       .  S
C29         C449   1.464       .  S
C29         C456   1.480       .  S
C30         C439   1.506       .  S
C30         C441   1.466       .  S
C30         C443   1.469       .  S
C30         C453   1.492       .  S
N31          N32   1.323       .  A
N31          C35   1.348       .  A
N31         Cu39   2.088       .  S
N32          C33   1.343       .  A
N32         Cu38   2.058       .  S
C33          C34   1.375       .  A
C33          H36   1.082       .  S
C34         C437   1.436       .  S
C34          C35   1.384       .  A
C35          H37   1.082       .  S
Cu38         N41   2.060       .  S
Cu39         N49   2.090       .  S
Cu40         N42   2.071       .  S
Cu40         N48   2.072       .  S
N41          N42   1.322       .  A
N41          C45   1.342       .  A
N42          C43   1.346       .  A
C43          C44   1.381       .  A
C43          H46   1.082       .  S
C44         C450   1.434       .  S
C44          C45   1.377       .  A
C45          H47   1.082       .  S
N48          N49   1.325       .  A
N48          C52   1.346       .  A
N49          C50   1.347       .  A
C50          C51   1.382       .  A
C50          H53   1.082       .  S
C51         C444   1.439       .  S
C51          C52   1.377       .  A
C52          H54   1.082       .  S
C55         C431   1.499       .  S
C55         C433   1.468       .  S
C55         C436   1.488       .  S
C55         C447   1.465       .  S
C56         C425   1.495       .  S
C56         C428   1.465       .  S
C56         C429   1.484       .  S
C56         C442   1.466       .  S
N57          N58   1.323       .  A
N57          C61   1.347       .  A
N57         Cu65   2.081       .  S
N58          C59   1.344       .  A
N58         Cu64   2.066       .  S
C59          C60   1.377       .  A
C59          H62   1.082       .  S
C60         C423   1.436       .  S
C60          C61   1.382       .  A
C61          H63   1.082       .  S
Cu64         N67   2.068       .  S
Cu65         N75   2.082       .  S
Cu66         N68   2.071       .  S
Cu66         N74   2.071       .  S
N67          N68   1.322       .  A
N67          C71   1.344       .  A
N68          C69   1.346       .  A
C69          C70   1.380       .  A
C69          H72   1.082       .  S
C70         C427   1.435       .  S
C70          C71   1.379       .  A
C71          H73   1.082       .  S
N74          N75   1.324       .  A
N74          C78   1.346       .  A
N75          C76   1.346   1_545  A
C76          C77   1.381       .  A
C76          H79   1.082       .  S
C77         C434   1.438       .  S
C77          C78   1.378   1_565  A
C78          H80   1.082       .  S
O81         Cu89   1.952       .  S
O81          C91   1.275       .  A
O82         Cu89   2.011       .  S
O82          C92   1.277       .  A
O83         Cu89   1.998   1_556  S
O83          C93   1.275   1_546  A
O84         Cu89   1.991       .  S
O84          C94   1.274       .  A
O85         Cu90   2.029       .  S
O85          C94   1.282       .  A
O86         Cu90   2.033   1_565  S
O86          C93   1.282       .  A
O87         Cu90   2.001       .  S
O87          C92   1.274       .  A
O88         Cu90   1.920       .  S
O88          C91   1.266       .  A
Cu89        Cu90   2.382       .  S
C91         C414   1.415       .  S
C92         C407   1.434       .  S
C93         C412   1.453   1_554  S
C94         C409   1.450       .  S
O95        Cu103   1.922       .  S
O95         C105   1.266       .  A
O96        Cu103   2.002       .  S
O96         C106   1.275       .  A
O97        Cu103   2.035   1_565  S
O97         C107   1.283       .  A
O98        Cu103   2.029       .  S
O98         C108   1.282       .  A
O99        Cu104   1.989       .  S
O99         C108   1.274       .  A
O100       Cu104   1.998   1_556  S
O100        C107   1.275   1_546  A
O101       Cu104   2.009       .  S
O101        C106   1.277       .  A
O102       Cu104   1.951       .  S
O102        C105   1.275       .  A
Cu103      Cu104   2.382       .  S
C105        C417   1.415       .  S
C106        C406   1.434       .  S
C107        C435   1.454   1_554  S
C108        C430   1.450       .  S
C109        C401   1.464       .  S
C109        C403   1.467       .  S
C109        C411   1.488       .  S
C109        C432   1.499       .  S
C110        C397   1.466       .  S
C110        C400   1.464       .  S
C110        C410   1.484       .  S
C110        C426   1.495       .  S
N111        N112   1.323       .  A
N111        C115   1.347       .  A
N111       Cu119   2.081       .  S
N112        C113   1.344       .  A
N112       Cu118   2.066       .  S
C113        C114   1.377       .  A
C113        H116   1.082       .  S
C114        C396   1.436       .  S
C114        C115   1.382       .  A
C115        H117   1.082       .  S
Cu118       N121   2.067       .  S
Cu119       N129   2.082       .  S
Cu120       N122   2.070       .  S
Cu120       N128   2.071       .  S
N121        N122   1.322       .  A
N121        C125   1.344       .  A
N122        C123   1.346       .  A
C123        C124   1.380       .  A
C123        H126   1.082       .  S
C124        C399   1.435       .  S
C124        C125   1.379       .  A
C125        H127   1.082       .  S
N128        N129   1.324       .  A
N128        C132   1.346       .  A
N129        C130   1.346   1_545  A
C130        C131   1.381       .  A
C130        H133   1.082       .  S
C131        C404   1.438       .  S
C131        C132   1.378   1_565  A
C132        H134   1.082       .  S
C135        C393   1.464       .  S
C135        C402   1.465       .  S
C135        C446   1.489       .  S
C135        C461   1.480       .  S
C136        C392   1.469       .  S
C136        C398   1.466       .  S
C136        C440   1.506       .  S
C136        C460   1.492       .  S
N137        N138   1.323       .  A
N137        C141   1.348       .  A
N137       Cu145   2.088       .  S
N138        C139   1.343       .  A
N138       Cu144   2.058       .  S
C139        C140   1.375       .  A
C139        H142   1.082       .  S
C140        C389   1.436       .  S
C140        C141   1.384       .  A
C141        H143   1.082       .  S
Cu144       N147   2.060       .  S
Cu145       N155   2.090       .  S
Cu146       N148   2.071       .  S
Cu146       N154   2.072       .  S
N147        N148   1.322       .  A
N147        C151   1.342       .  A
N148        C149   1.346       .  A
C149        C150   1.381       .  A
C149        H152   1.082       .  S
C150        C394   1.434       .  S
C150        C151   1.377       .  A
C151        H153   1.082       .  S
N154        N155   1.325       .  A
N154        C158   1.346       .  A
N155        C156   1.347       .  A
C156        C157   1.382       .  A
C156        H159   1.082       .  S
C157        C391   1.439       .  S
C157        C158   1.377       .  A
C158        H160   1.082       .  S
O161       Cu169   2.009       .  S
O161        C171   1.277       .  A
O162       Cu169   1.949       .  S
O162        C172   1.274       .  A
O163       Cu169   1.992       .  S
O163        C173   1.275       .  A
O164       Cu169   2.000       .  S
O164        C174   1.276       .  A
O165       Cu170   2.033       .  S
O165        C174   1.282       .  A
O166       Cu170   2.028       .  S
O166        C173   1.282       .  A
O167       Cu170   1.920       .  S
O167        C172   1.266       .  A
O168       Cu170   2.001       .  S
O168        C171   1.275       .  A
Cu169      Cu170   2.382       .  S
C171        C438   1.434       .  S
C172        C383   1.414       .  S
C173        C375   1.451       .  S
C174        C377   1.454       .  S
O175       Cu183   1.920       .  S
O175        C185   1.266       .  A
O176       Cu183   2.001       .  S
O176        C186   1.275       .  A
O177       Cu183   2.033       .  S
O177        C187   1.282       .  A
O178       Cu183   2.028       .  S
O178        C188   1.282       .  A
O179       Cu184   1.992       .  S
O179        C188   1.275       .  A
O180       Cu184   2.000       .  S
O180        C187   1.276       .  A
O181       Cu184   2.009       .  S
O181        C186   1.277       .  A
O182       Cu184   1.949       .  S
O182        C185   1.275       .  A
Cu183      Cu184   2.382       .  S
C185        C380   1.414       .  S
C186        C390   1.434       .  S
C187        C374   1.454       .  S
C188        C371   1.451       .  S
C189        C365   1.500       .  S
C189        C368   1.465       .  S
C189        C369   1.468       .  S
C189        C373   1.489       .  S
C190        C359   1.496       .  S
C190        C362   1.466       .  S
C190        C363   1.465       .  S
C190        C372   1.485       .  S
N191        N192   1.323       .  A
N191        C195   1.347       .  A
N191       Cu199   2.082   1_554  S
N192        C193   1.344       .  A
N192       Cu198   2.067       .  S
C193        C194   1.377       .  A
C193        H196   1.082       .  S
C194        C458   1.437       .  S
C194        C195   1.382       .  A
C195        H197   1.082   1_554  S
Cu198       N201   2.068       .  S
Cu199       N209   2.083       .  S
Cu200       N202   2.071       .  S
Cu200       N208   2.072   1_554  S
N201        N202   1.322       .  A
N201        C205   1.344       .  A
N202        C203   1.346       .  A
C203        C204   1.380       .  A
C203        H206   1.082       .  S
C204        C364   1.435       .  S
C204        C205   1.379       .  A
C205        H207   1.082       .  S
N208        N209   1.324       .  A
N208        C212   1.346       .  A
N209        C210   1.346       .  A
C210        C211   1.381       .  A
C210        H213   1.082       .  S
C211        C370   1.438       .  S
C211        C212   1.378       .  A
C212        H214   1.082       .  S
C215        C354   1.490       .  S
C215        C355   1.464       .  S
C215        C357   1.481       .  S
C215        C367   1.465       .  S
C216        C348   1.507       .  S
C216        C349   1.469       .  S
C216        C351   1.493       .  S
C216        C361   1.466       .  S
N217        N218   1.323       .  A
N217        C221   1.348       .  A
N217       Cu225   2.089       .  S
N218        C219   1.343       .  A
N218       Cu224   2.059       .  S
C219        C220   1.375       .  A
C219        H222   1.082       .  S
C220        C408   1.437       .  S
C220        C221   1.384       .  A
C221        H223   1.082       .  S
Cu224       N227   2.060   1_554  S
Cu225       N235   2.091       .  S
Cu226       N228   2.071       .  S
Cu226       N234   2.072       .  S
N227        N228   1.322   1_556  A
N227        C231   1.343       .  A
N228        C229   1.347   1_554  A
C229        C230   1.381       .  A
C229        H232   1.082       .  S
C230        C356   1.434   1_545  S
C230        C231   1.377       .  A
C231        H233   1.082   1_545  S
N234        N235   1.325       .  A
N234        C238   1.346       .  A
N235        C236   1.347       .  A
C236        C237   1.382       .  A
C236        H239   1.082       .  S
C237        C350   1.440       .  S
C237        C238   1.377       .  A
C238        H240   1.082       .  S
O241       Cu249   2.002       .  S
O241        C251   1.275       .  A
O242       Cu249   1.922       .  S
O242        C252   1.267       .  A
O243       Cu249   2.025       .  S
O243        C253   1.281       .  A
O244       Cu249   2.033       .  S
O244        C254   1.282       .  A
O245       Cu250   1.998       .  S
O245        C254   1.276       .  A
O246       Cu250   2.000       .  S
O246        C253   1.275       .  A
O247       Cu250   1.948       .  S
O247        C252   1.274       .  A
O248       Cu250   2.010       .  S
O248        C251   1.277       .  A
Cu249      Cu250   2.381       .  S
C251        C424   1.434       .  S
C252        C338   1.418       .  S
C253        C336   1.447       .  S
C254        C333   1.459       .  S
O255       Cu263   2.010       .  S
O255        C265   1.277       .  A
O256       Cu263   1.948       .  S
O256        C266   1.274       .  A
O257       Cu263   2.000       .  S
O257        C267   1.275       .  A
O258       Cu263   1.998       .  S
O258        C268   1.276       .  A
O259       Cu264   2.032       .  S
O259        C268   1.282       .  A
O260       Cu264   2.025       .  S
O260        C267   1.281       .  A
O261       Cu264   1.922       .  S
O261        C266   1.267       .  A
O262       Cu264   2.002       .  S
O262        C265   1.275       .  A
Cu263      Cu264   2.381       .  S
C265        C395   1.434       .  S
C266        C341   1.418       .  S
C267        C358   1.447       .  S
C268        C352   1.459       .  S
C269        C329   1.465       .  S
C269        C331   1.468       .  S
C269        C366   1.500       .  S
C269        C378   1.488       .  S
C270        C325   1.466       .  S
C270        C328   1.465       .  S
C270        C360   1.496       .  S
C270        C376   1.485       .  S
N271        N272   1.323       .  A
N271        C275   1.347       .  A
N271       Cu279   2.082   1_554  S
N272        C273   1.344       .  A
N272       Cu278   2.067       .  S
C273        C274   1.377       .  A
C273        H276   1.082       .  S
C274        C451   1.437       .  S
C274        C275   1.382       .  A
C275        H277   1.082   1_554  S
Cu278       N281   2.068       .  S
Cu279       N289   2.083       .  S
Cu280       N282   2.071       .  S
Cu280       N288   2.071   1_554  S
N281        N282   1.322       .  A
N281        C285   1.344       .  A
N282        C283   1.346       .  A
C283        C284   1.380       .  A
C283        H286   1.082       .  S
C284        C327   1.435       .  S
C284        C285   1.379       .  A
C285        H287   1.082       .  S
N288        N289   1.324       .  A
N288        C292   1.346       .  A
N289        C290   1.346       .  A
C290        C291   1.381       .  A
C290        H293   1.082       .  S
C291        C332   1.438       .  S
C291        C292   1.378       .  A
C292        H294   1.082       .  S
C295        C323   1.464       .  S
C295        C330   1.465       .  S
C295        C335   1.481       .  S
C295        C353   1.490       .  S
C296        C321   1.469       .  S
C296        C326   1.466       .  S
C296        C334   1.493       .  S
C296        C347   1.507       .  S
N297        N298   1.325       .  A
N297        C301   1.347       .  A
N297       Cu305   2.091       .  S
N298        C299   1.346       .  A
N298       Cu304   2.072       .  S
C299        C300   1.377       .  A
C299        H302   1.082       .  S
C300        C322   1.440       .  S
C300        C301   1.382       .  A
C301        H303   1.082       .  S
Cu304       N307   2.072       .  S
Cu305       N315   2.089       .  S
Cu306       N308   2.060   1_554  S
Cu306       N314   2.059       .  S
N307        N308   1.322   1_554  A
N307        C311   1.347   1_554  A
N308        C309   1.343       .  A
C309        C310   1.377       .  A
C309        H312   1.082   1_545  S
C310        C324   1.434   1_545  S
C310        C311   1.381       .  A
C311        H313   1.082       .  S
N314        N315   1.323       .  A
N314        C318   1.343       .  A
N315        C316   1.348       .  A
C316        C317   1.384       .  A
C316        H319   1.082       .  S
C317        C405   1.437       .  S
C317        C318   1.375       .  A
C318        H320   1.082       .  S
C321        C322   1.208       .  T
C323        C324   1.205       .  T
C325        C326   1.207       .  T
C327        C328   1.206       .  T
C329        C330   1.207       .  T
C331        C332   1.208       .  T
C333        C334   1.223       .  T
C335        C336   1.216   1_565  T
C337        C338   1.397       .  A
C337        C342   1.376   1_455  A
C337        H343   1.084       .  S
C338        C339   1.395       .  A
C339        C340   1.372   1_455  A
C339        H344   1.084       .  S
C340        C341   1.395       .  A
C340        H345   1.084       .  S
C341        C342   1.397       .  A
C342        H346   1.084       .  S
C347        C348   1.231   1_455  T
C349        C350   1.208       .  T
C351        C352   1.223       .  T
C353        C354   1.221   1_455  T
C355        C356   1.205       .  T
C357        C358   1.216   1_565  T
C359        C360   1.225   1_655  T
C361        C362   1.207       .  T
C363        C364   1.206       .  T
C365        C366   1.227   1_655  T
C367        C368   1.207       .  T
C369        C370   1.207       .  T
C371        C372   1.219       .  T
C373        C374   1.220       .  T
C375        C376   1.218       .  T
C377        C378   1.220       .  T
C379        C380   1.394       .  A
C379        C384   1.371   1_655  A
C379        H385   1.084       .  S
C380        C381   1.396       .  A
C381        C382   1.378   1_655  A
C381        H386   1.083       .  S
C382        C383   1.396       .  A
C382        H387   1.083       .  S
C383        C384   1.394       .  A
C384        H388   1.084       .  S
C389        C390   1.205       .  T
C391        C392   1.208       .  T
C393        C394   1.205       .  T
C395        C396   1.205       .  T
C397        C398   1.207       .  T
C399        C400   1.205       .  T
C401        C402   1.206       .  T
C403        C404   1.207       .  T
C405        C406   1.205       .  T
C407        C408   1.206       .  T
C409        C410   1.218       .  T
C411        C412   1.220       .  T
C413        C414   1.394       .  A
C413        C418   1.371       .  A
C413        H419   1.084       .  S
C414        C415   1.397   1_545  A
C415        C416   1.379       .  A
C415        H420   1.083       .  S
C416        C417   1.397   1_565  A
C416        H421   1.083       .  S
C417        C418   1.394       .  A
C418        H422   1.084       .  S
C423        C424   1.205       .  T
C425        C426   1.225       .  T
C427        C428   1.206       .  T
C429        C430   1.218       .  T
C431        C432   1.227       .  T
C433        C434   1.207       .  T
C435        C436   1.220       .  T
C437        C438   1.205       .  T
C439        C440   1.231       .  T
C441        C442   1.207       .  T
C443        C444   1.208       .  T
C445        C446   1.221       .  T
C447        C448   1.206       .  T
C449        C450   1.205       .  T
C451        C452   1.205       .  T
C453        C454   1.223       .  T
C455        C456   1.215       .  T
C457        C458   1.205       .  T
C459        C460   1.223       .  T
C461        C462   1.215       .  T
C463        C464   1.395       .  A
C463        C468   1.372       .  A
C463        H469   1.084       .  S
C464        C465   1.397       .  A
C465        C466   1.378       .  A
C465        H470   1.084   1_554  S
C466        C467   1.397       .  A
C466        H471   1.084   1_554  S
C467        C468   1.395       .  A
C468        H472   1.084       .  S
