geometry optimzed in LAMMPS
_audit_creation_date              2020-12-01 
_audit_creation_method            'lammps2cif' 
_symmetry_space_group_name_H-M    'P1' 
_symmetry_Int_Tables_number       1 
_symmetry_cell_setting            triclinic 
loop_ 
_symmetry_equiv_pos_as_xyz 
  x,y,z 
_cell_length_a                    38.34656796 
_cell_length_b                    38.15238805583886 
_cell_length_c                    38.20238779300082 
_cell_angle_alpha                 90.16570835093387 
_cell_angle_beta                  89.94470805572365 
_cell_angle_gamma                 89.82287607436703 
loop_ 
_atom_site_label 
_atom_site_type_symbol 
_atom_site_fract_x 
_atom_site_fract_y 
_atom_site_fract_z 
_atom_site_charge 
C1          C  0.71274145  0.76438297  0.72347488     0.80100
N2          N  0.74197782  0.75069673  0.70828778    -0.78200
C3          C  0.75868397  0.72254456  0.72237762     0.82600
N4          N  0.74543611  0.70797670  0.75192295    -0.78100
C5          C  0.71653139  0.72122515  0.76771878     0.82700
N6          N  0.70017487  0.74936115  0.75322476    -0.79800
C7          C  0.17825158  0.71893039  0.13068300     0.80100
N8          N  0.14933056  0.70325446  0.14417887    -0.78200
C9          C  0.13283769  0.71666734  0.17295237     0.82600
N10         N  0.14614722  0.74578763  0.18876491    -0.78100
C11         C  0.17477958  0.76205073  0.17540074     0.82700
N12         N  0.19051470  0.74829675  0.14654756    -0.79800
C13         C  0.75986309  0.17707469  0.71881788     0.80100
N14         N  0.74513994  0.14776720  0.70484528    -0.78200
C15         C  0.71599431  0.13324658  0.71898501     0.82600
N16         N  0.70085335  0.14906841  0.74704862    -0.78100
C17         C  0.71453665  0.17866896  0.76130223     0.82700
N18         N  0.74416158  0.19236790  0.74713878    -0.79800
C19         C  0.17562549  0.12282944  0.71568434     0.80100
N20         N  0.14527728  0.13582879  0.70285232    -0.78200
C21         C  0.12975423  0.16441055  0.71748862     0.82600
N22         N  0.14575250  0.18080451  0.74492778    -0.78100
C23         C  0.17627815  0.16814489  0.75834377     0.82700
N24         N  0.19088363  0.13927524  0.74322866    -0.79800
C25         C  0.16969970  0.76707854  0.71849613     0.80100
N26         N  0.13889560  0.75504583  0.70571645    -0.78200
C27         C  0.12229904  0.72753210  0.72082998     0.82600
N28         N  0.13724813  0.71167499  0.74885253    -0.78100
C29         C  0.16801614  0.72317782  0.76218847     0.82700
N30         N  0.18404258  0.75106491  0.74692361    -0.79800
C31         C  0.72643436  0.17135181  0.12832647     0.80100
N32         N  0.71134090  0.14227819  0.14203801    -0.78200
C33         C  0.72473344  0.12641029  0.17086159     0.82600
N34         N  0.75299763  0.14066976  0.18681866    -0.78100
C35         C  0.76817566  0.17018414  0.17412220     0.82700
N36         N  0.75471637  0.18532747  0.14479087    -0.79800
O37         O  0.40236374  0.40650569  0.02355958    -0.73000
O38         O  0.48470451  0.47024994  0.01985272    -0.74000
O39         O  0.47515042  0.39693209  0.02315978    -0.62600
O40         O  0.41092489  0.47964471  0.02004226    -0.71000
O41         O  0.40851008  0.48076071  0.07812045    -0.70600
O42         O  0.47816223  0.40043737  0.08105594    -0.61800
O43         O  0.48377093  0.47535509  0.07773753    -0.74300
O44         O  0.40382426  0.40594534  0.08163712    -0.73100
Cu45       Cu  0.44329818  0.43833680  0.01976605     1.04600
Cu46       Cu  0.44361628  0.44085206  0.08181174     1.04300
C47         C  0.39047828  0.39554906  0.05276746     0.93200
C48         C  0.49744132  0.48276027  0.04808798     0.92300
C49         C  0.48673382  0.38546517  0.05227198     0.84500
C50         C  0.39867776  0.49254161  0.04837338     0.90700
C51         C  0.24837640  0.24477510  0.01729347     0.03100
C52         C  0.26988919  0.26897883  0.03468615    -0.13100
C53         C  0.29452598  0.28810809  0.01612937     0.00600
C54         C  0.29929112  0.28133548  0.98055505    -0.11600
C55         C  0.27520888  0.26123206  0.96104760     0.03000
C56         C  0.25001356  0.24199243  0.98031444    -0.11000
H57         H  0.26712592  0.27324487  0.06262097     0.08600
H58         H  0.32143710  0.29371701  0.96854519     0.06200
H59         H  0.23123274  0.22556039  0.96716958     0.06000
C60         C  0.25273547  0.64329007  0.02121404     0.03100
C61         C  0.27453933  0.61768789  0.03609863    -0.13100
C62         C  0.29414499  0.59538636  0.01477155     0.00600
C63         C  0.29129484  0.59816841  0.97847395    -0.11600
C64         C  0.27206674  0.62549164  0.96229126     0.03000
C65         C  0.25229014  0.64786784  0.98445074    -0.11000
H66         H  0.27633803  0.61525363  0.06430339     0.08600
H67         H  0.30469542  0.57830869  0.96346662     0.06200
H68         H  0.23682154  0.66896453  0.97369504     0.06000
C69         C  0.64639158  0.24973484  0.02662579     0.03100
C70         C  0.61786117  0.26582805  0.04348319    -0.13100
C71         C  0.59259570  0.28375532  0.02410954     0.00600
C72         C  0.59518518  0.28380374  0.98759241    -0.11600
C73         C  0.62443088  0.26999005  0.96978298     0.03000
C74         C  0.64988450  0.25215430  0.98981891    -0.11000
H75         H  0.61523551  0.26398831  0.07164343     0.08600
H76         H  0.57399653  0.29563160  0.97318830     0.06200
H77         H  0.67256270  0.24076444  0.97725631     0.06000
C78         C  0.64700017  0.63014987  0.02634143     0.03100
C79         C  0.64700785  0.63518668  0.98978736    -0.13100
C80         C  0.62851688  0.61212898  0.96768310     0.00600
C81         C  0.61160344  0.58317163  0.98314573    -0.11600
C82         C  0.60864191  0.57982279  0.01945822     0.03000
C83         C  0.62708201  0.60300323  0.04104484    -0.11000
H84         H  0.66039906  0.65765350  0.97904750     0.08600
H85         H  0.59881844  0.56367308  0.96710873     0.06200
H86         H  0.62569299  0.60020026  0.06922572     0.06000
O87         O  0.41158390  0.41033619  0.81341394    -0.73000
O88         O  0.48045556  0.49023372  0.81479773    -0.74000
O89         O  0.48597198  0.41579063  0.81921328    -0.62600
O90         O  0.40691552  0.48552616  0.80937623    -0.71000
O91         O  0.40146118  0.48621891  0.86728267    -0.70600
O92         O  0.48224398  0.42078490  0.87699641    -0.61800
O93         O  0.47392060  0.49427417  0.87239563    -0.74300
O94         O  0.40841054  0.41277157  0.87143243    -0.73100
Cu95       Cu  0.44636710  0.45020536  0.81208495     1.04600
Cu96       Cu  0.44136533  0.45345810  0.87396746     1.04300
C97         C  0.39895031  0.39929015  0.84232254     0.93200
C98         C  0.48744228  0.50522977  0.84389558     0.92300
C99         C  0.49720136  0.40827114  0.84981595     0.84500
C100        C  0.39221130  0.49714590  0.83715794     0.90700
C101        C  0.25891703  0.24241774  0.86256880     0.03100
C102        C  0.28127042  0.26710599  0.84720376    -0.13100
C103        C  0.30000942  0.29028555  0.86820592     0.00600
C104        C  0.29617778  0.28893471  0.90449914    -0.11600
C105        C  0.27617710  0.26272693  0.92129314     0.03000
C106        C  0.25690309  0.23973902  0.89945987    -0.11000
H107        H  0.28336544  0.26881416  0.81896342     0.08600
H108        H  0.30898411  0.30943329  0.91890090     0.06200
H109        H  0.24035876  0.21976608  0.91052999     0.06000
C110        C  0.24910689  0.64841298  0.86606002     0.03100
C111        C  0.24841092  0.64895688  0.90320366    -0.13100
C112        C  0.27335148  0.62955233  0.92277876     0.00600
C113        C  0.29951676  0.61170585  0.90369172    -0.11600
C114        C  0.29736667  0.60732900  0.86755043     0.03000
C115        C  0.27287235  0.62633834  0.84865517    -0.11000
H116        H  0.22801150  0.66361130  0.91622776     0.08600
H117        H  0.32112204  0.59890532  0.91644994     0.06200
H118        H  0.27187926  0.62344883  0.82043174     0.06000
C119        C  0.64573799  0.25894962  0.87140607     0.03100
C120        C  0.64591028  0.25309653  0.90801751    -0.13100
C121        C  0.62762591  0.27600198  0.93083998     0.00600
C122        C  0.61013136  0.30493993  0.91591317    -0.11600
C123        C  0.60706269  0.30912970  0.87972465     0.03000
C124        C  0.62593674  0.28677107  0.85764847    -0.11000
H125        H  0.65936199  0.23038180  0.91828353     0.08600
H126        H  0.59751067  0.32426606  0.93235116     0.06200
H127        H  0.62526492  0.29092278  0.82962830     0.06000
C128        C  0.64255879  0.64166469  0.87221709     0.03100
C129        C  0.61297400  0.62681353  0.85647385    -0.13100
C130        C  0.58836198  0.60910401  0.87662816     0.00600
C131        C  0.59338372  0.60639654  0.91270684    -0.11600
C132        C  0.62367263  0.61904772  0.92922259     0.03000
C133        C  0.64809200  0.63758069  0.90857395    -0.11000
H134        H  0.60917855  0.62898897  0.82844340     0.08600
H135        H  0.57327823  0.59352300  0.92769280     0.06200
H136        H  0.67160128  0.64802310  0.92020683     0.06000
O137        O  0.47707032  0.01828388  0.48582626    -0.73000
O138        O  0.42019557  0.01785949  0.39741288    -0.74000
O139        O  0.49268771  0.01882363  0.41316564    -0.62600
O140        O  0.40478627  0.01712471  0.46991945    -0.71000
O141        O  0.40542798  0.07519850  0.47370315    -0.70600
O142        O  0.48988440  0.07687895  0.41033435    -0.61800
O143        O  0.41594359  0.07583587  0.39978901    -0.74300
O144        O  0.47919567  0.07640680  0.48443709    -0.73100
Cu145      Cu  0.44874540  0.01605562  0.44154663     1.04600
Cu146      Cu  0.44759444  0.07819613  0.44206382     1.04300
C147        C  0.48768313  0.04731215  0.49866966     0.93200
C148        C  0.40818559  0.04664477  0.38526883     0.92300
C149        C  0.50475996  0.04793776  0.40215831     0.84500
C150        C  0.39166916  0.04572159  0.48142290     0.90700
C151        C  0.25495539  0.02390642  0.24337163     0.03100
C152        C  0.24884590  0.98746284  0.24636565    -0.13100
C153        C  0.27245654  0.96592279  0.26502431     0.00600
C154        C  0.30288440  0.98152873  0.27855365    -0.11600
C155        C  0.30812764  0.01772645  0.27779047     0.03000
C156        C  0.28403446  0.03889493  0.26011962    -0.11000
H157        H  0.22540852  0.97640508  0.23513999     0.08600
H158        H  0.32257802  0.96570359  0.29121560     0.06200
H159        H  0.28785222  0.06701916  0.25940460     0.06000
C160        C  0.64738296  0.02434968  0.25080653     0.03100
C161        C  0.63180177  0.03926526  0.28073081    -0.13100
C162        C  0.61409401  0.01829081  0.30476245     0.00600
C163        C  0.61304176  0.98211493  0.29933039    -0.11600
C164        C  0.62653964  0.96638877  0.26866470     0.03000
C165        C  0.64460877  0.98788534  0.24473186    -0.11000
H166        H  0.63308854  0.06730015  0.28514651     0.08600
H167        H  0.59992849  0.96650477  0.31886341     0.06200
H168        H  0.65539179  0.97678444  0.22094803     0.06000
C169        C  0.25148781  0.01982387  0.63406107     0.03100
C170        C  0.25379858  0.98352775  0.64034434    -0.13100
C171        C  0.27166076  0.96138047  0.61668228     0.00600
C172        C  0.28595215  0.97648477  0.58618437    -0.11600
C173        C  0.28478350  0.01263128  0.58026943     0.03000
C174        C  0.26725192  0.03417380  0.60419046    -0.11000
H175        H  0.24266932  0.97307047  0.66415712     0.08600
H176        H  0.29943467  0.96045956  0.56712691     0.06200
H177        H  0.26631003  0.06222078  0.59982461     0.06000
C178        C  0.63574349  0.02707795  0.64593064     0.03100
C179        C  0.64103354  0.99032967  0.64528654    -0.13100
C180        C  0.61744261  0.96829062  0.62727280     0.00600
C181        C  0.58777125  0.98385412  0.61189906    -0.11600
C182        C  0.58302201  0.02011448  0.61092887     0.03000
C183        C  0.60695041  0.04166070  0.62823776    -0.11000
H184        H  0.66400800  0.97937000  0.65759595     0.08600
H185        H  0.56848960  0.96788289  0.59886599     0.06200
H186        H  0.60336400  0.06983791  0.62762705     0.06000
O187        O  0.49060442  0.81973662  0.47511151    -0.73000
O188        O  0.40490509  0.81821356  0.41324757    -0.74000
O189        O  0.47841655  0.82181113  0.40109993    -0.62600
O190        O  0.41741936  0.81589420  0.48708827    -0.71000
O191        O  0.41784615  0.87397875  0.49048011    -0.70600
O192        O  0.47310300  0.87972130  0.40170144    -0.61800
O193        O  0.40109994  0.87604170  0.41832806    -0.74300
O194        O  0.48952484  0.87790202  0.47417595    -0.73100
Cu195      Cu  0.44794707  0.81679600  0.44399486     1.04600
Cu196      Cu  0.44529571  0.87885989  0.44620647     1.04300
C197        C  0.50353468  0.84924889  0.48422942     0.93200
C198        C  0.38930324  0.84709075  0.40644208     0.92300
C199        C  0.48487612  0.85171855  0.38755112     0.84500
C200        C  0.40882033  0.84426769  0.50277527     0.90700
C201        C  0.24521750  0.86911568  0.25677916     0.03100
C202        C  0.24752287  0.90540176  0.24971886    -0.13100
C203        C  0.26574252  0.92782871  0.27279742     0.00600
C204        C  0.28002585  0.91313624  0.30352101    -0.11600
C205        C  0.27887496  0.87717874  0.31026797     0.03000
C206        C  0.26101515  0.85534865  0.28699465    -0.11000
H207        H  0.23646453  0.91559694  0.22574517     0.08600
H208        H  0.29385212  0.92941941  0.32199495     0.06200
H209        H  0.26014277  0.82740233  0.29194793     0.06000
C210        C  0.63517522  0.86959414  0.24062227     0.03100
C211        C  0.64211369  0.90591684  0.24315790    -0.13100
C212        C  0.61916375  0.92824982  0.26183167     0.00600
C213        C  0.58892551  0.91343986  0.27653399    -0.11600
C214        C  0.58335665  0.87728307  0.27696127     0.03000
C215        C  0.60596866  0.85553963  0.25788360    -0.11000
H216        H  0.66575139  0.91625384  0.23168602     0.08600
H217        H  0.56988271  0.92993851  0.28946580     0.06200
H218        H  0.60121967  0.82760323  0.25676328     0.06000
C219        C  0.25872566  0.86655024  0.64761271     0.03100
C220        C  0.28709316  0.84998639  0.63104681    -0.13100
C221        C  0.31063832  0.86952956  0.61112995     0.00600
C222        C  0.30646239  0.90591884  0.60931524    -0.11600
C223        C  0.27723087  0.92305396  0.62381162     0.03000
C224        C  0.25345572  0.90288773  0.64346948    -0.11000
H225        H  0.29051282  0.82190929  0.63342856     0.08600
H226        H  0.32609726  0.92063162  0.59541007     0.06200
H227        H  0.23036058  0.91487608  0.65463390     0.06000
C228        C  0.64255725  0.87126216  0.64124842     0.03100
C229        C  0.64084869  0.90800632  0.64643493    -0.13100
C230        C  0.62347949  0.92957696  0.62189000     0.00600
C231        C  0.60944397  0.91349899  0.59176140    -0.11600
C232        C  0.60808919  0.87712195  0.58795310     0.03000
C233        C  0.62549334  0.85610092  0.61235181    -0.11000
H234        H  0.65219406  0.91934316  0.66978038     0.08600
H235        H  0.59785386  0.92919402  0.57129865     0.06200
H236        H  0.62587685  0.82791574  0.60889284     0.06000
C237        C  0.76321542  0.71774905  0.17179201     0.80100
N238        N  0.74833748  0.74669264  0.18669757    -0.78200
C239        C  0.71830352  0.76068971  0.17378194     0.82600
N240        N  0.70316745  0.74535152  0.14545537    -0.78100
C241        C  0.71712961  0.71619742  0.13032259     0.82700
N242        N  0.74711531  0.70262868  0.14387682    -0.79800
O243        O  0.07671425  0.48571045  0.48907097    -0.73000
O244        O  0.07538309  0.40643643  0.41770242    -0.74000
O245        O  0.07097318  0.48132154  0.41355720    -0.62600
O246        O  0.08128478  0.41087710  0.49242460    -0.71000
O247        O  0.02358587  0.40981517  0.49763484    -0.70600
O248        O  0.01366442  0.47658702  0.41783834    -0.61800
O249        O  0.01804908  0.40279938  0.42431252    -0.74300
O250        O  0.01896701  0.48305026  0.49147869    -0.73100
Cu251      Cu  0.07825277  0.44624794  0.45299720     1.04600
Cu252      Cu  0.01672450  0.44299477  0.45793932     1.04300
C253        C  0.04761461  0.49676600  0.50138304     0.93200
C254        C  0.04628481  0.39180011  0.41035361     0.92300
C255        C  0.04039196  0.48994089  0.40312199     0.84500
C256        C  0.05372365  0.39962414  0.50748199     0.90700
C257        C  0.02702616  0.24942388  0.25313259     0.03100
C258        C  0.04148773  0.27021712  0.27998238    -0.13100
C259        C  0.02001726  0.29065953  0.30155874     0.00600
C260        C  0.98406882  0.29009547  0.29614853    -0.11600
C261        C  0.96883073  0.27265983  0.26736809     0.03000
C262        C  0.99079269  0.25170409  0.24613961    -0.11000
H263        H  0.06943130  0.27063465  0.28403601     0.08600
H264        H  0.96812372  0.30391277  0.31503738     0.06200
H265        H  0.98002709  0.23707009  0.22441655     0.06000
C266        C  0.02771132  0.63472890  0.24657658     0.03100
C267        C  0.99105783  0.63774347  0.24196402    -0.13100
C268        C  0.96851022  0.61319511  0.25792195     0.00600
C269        C  0.98420405  0.58422886  0.27443359    -0.11600
C270        C  0.01870375  0.58546921  0.28613220     0.03000
C271        C  0.04061773  0.61114473  0.27195813    -0.11000
H272        H  0.98057354  0.65873286  0.22613766     0.08600
H273        H  0.96868447  0.56192281  0.28218139     0.06200
H274        H  0.06759436  0.61276257  0.27991007     0.06000
C275        C  0.02400820  0.24280281  0.64405356     0.03100
C276        C  0.04146517  0.26905439  0.62527023    -0.13100
C277        C  0.02272694  0.29530066  0.60827332     0.00600
C278        C  0.98645872  0.29614999  0.61119920    -0.11600
C279        C  0.96756418  0.26875816  0.62730527     0.03000
C280        C  0.98706213  0.24231807  0.64464294    -0.11000
H281        H  0.06969316  0.26888406  0.62362756     0.08600
H282        H  0.97340101  0.31850816  0.59988482     0.06200
H283        H  0.97403116  0.22104127  0.65787828     0.06000
C284        C  0.01887168  0.64623696  0.64778345     0.03100
C285        C  0.98204194  0.64791885  0.64869996    -0.13100
C286        C  0.96182017  0.62204665  0.63162323     0.00600
C287        C  0.97972186  0.59385093  0.61564186    -0.11600
C288        C  0.01592851  0.59395049  0.61151800     0.03000
C289        C  0.03552303  0.61941354  0.62869687    -0.11000
H290        H  0.96965108  0.66993000  0.66162641     0.08600
H291        H  0.96576732  0.57218283  0.60404569     0.06200
H292        H  0.06366318  0.61908505  0.62625145     0.06000
O293        O  0.81637848  0.41037974  0.48245449    -0.73000
O294        O  0.81653762  0.48632368  0.40844123    -0.74000
O295        O  0.81957628  0.41152542  0.40737454    -0.62600
O296        O  0.81350585  0.48595854  0.48331890    -0.71000
O297        O  0.87136570  0.48865297  0.48425460    -0.70600
O298        O  0.87719149  0.41374129  0.41143540    -0.61800
O299        O  0.87437783  0.48798896  0.41117370    -0.74300
O300        O  0.87401209  0.41451748  0.48564344    -0.73100
Cu301      Cu  0.81434685  0.44841143  0.44535286     1.04600
Cu302      Cu  0.87612355  0.45116553  0.44820095     1.04300
C303        C  0.84543463  0.40077599  0.49584993     0.93200
C304        C  0.84566530  0.49913818  0.39845917     0.92300
C305        C  0.84973773  0.40083192  0.39767846     0.84500
C306        C  0.84173180  0.49952874  0.49493163     0.90700
C307        C  0.87242624  0.25307580  0.24662891     0.03100
C308        C  0.85679446  0.27890539  0.26805459    -0.13100
C309        C  0.87727023  0.30483884  0.28375747     0.00600
C310        C  0.91290139  0.30559967  0.27644612    -0.11600
C311        C  0.93009387  0.27652387  0.26153506     0.03000
C312        C  0.90928103  0.25073689  0.24511923    -0.11000
H313        H  0.82899172  0.27828728  0.27297745     0.08600
H314        H  0.92750787  0.32775154  0.28626374     0.06200
H315        H  0.92124194  0.22842887  0.23229338     0.06000
C316        C  0.87211548  0.64215388  0.24558462     0.03100
C317        C  0.90861956  0.63936293  0.23972909    -0.13100
C318        C  0.92942894  0.61782940  0.26162012     0.00600
C319        C  0.91260691  0.60076782  0.28974728    -0.11600
C320        C  0.87662018  0.60158109  0.29428520     0.03000
C321        C  0.85631964  0.62172399  0.27179029    -0.11000
H322        H  0.92041507  0.65412426  0.21870993     0.08600
H323        H  0.92721721  0.58631989  0.30908679     0.06200
H324        H  0.82828945  0.62253503  0.27544940     0.06000
C325        C  0.86941312  0.25283541  0.64548940     0.03100
C326        C  0.90616933  0.24974876  0.64783919    -0.13100
C327        C  0.92809852  0.26854105  0.62462874     0.00600
C328        C  0.91174112  0.28873150  0.59833596    -0.11600
C329        C  0.87581198  0.29474751  0.59811670     0.03000
C330        C  0.85456577  0.27611927  0.62116432    -0.11000
H331        H  0.91718239  0.23320320  0.66794879     0.08600
H332        H  0.92664996  0.30120348  0.57790133     0.06200
H333        H  0.82655191  0.27989853  0.62040855     0.06000
C334        C  0.86473957  0.64538490  0.64565413     0.03100
C335        C  0.90128310  0.64464702  0.65034136    -0.13100
C336        C  0.92274429  0.62487477  0.62741687     0.00600
C337        C  0.90640122  0.60722036  0.59932064    -0.11600
C338        C  0.87018876  0.60632110  0.59566248     0.03000
C339        C  0.84937959  0.62541446  0.61888464    -0.11000
H340        H  0.91247914  0.65894508  0.67205832     0.08600
H341        H  0.92148144  0.59348608  0.57970284     0.06200
H342        H  0.82125862  0.62490601  0.61606025     0.06000
C343        C  0.12774052  0.17075013  0.17012025     0.80100
N344        N  0.14126881  0.18611607  0.14110123    -0.78200
C345        C  0.17027738  0.17314300  0.12510335     0.82600
N346        N  0.18628063  0.14445635  0.13912649    -0.78100
C347        C  0.17352302  0.12870588  0.16843135     0.82700
N348        N  0.14435505  0.14230854  0.18373734    -0.79800
C349        C  0.88272757  0.32274437  0.34543949    -0.20400
C350        C  0.86477999  0.32666703  0.31363788    -0.06900
C351        C  0.83931635  0.35331142  0.31065682     0.13900
C352        C  0.83347268  0.37615509  0.33924147    -0.20400
C353        C  0.85339888  0.37361317  0.37010075    -0.07000
C354        C  0.87804674  0.34614878  0.37329516     0.13900
C355        C  0.89990188  0.34130632  0.40579726    -0.23800
H356        H  0.90200650  0.30202177  0.34781946     0.15200
H357        H  0.81458341  0.39720000  0.33681165     0.15200
C358        C  0.81969405  0.35880686  0.27701423    -0.23700
H359        H  0.91598382  0.31706553  0.40445986     0.05400
H360        H  0.88284532  0.33939106  0.42915164     0.08700
H361        H  0.91813653  0.36359314  0.40898826     0.08700
H362        H  0.80379541  0.33534445  0.27092040     0.08600
H363        H  0.83835253  0.36352916  0.25530358     0.08600
H364        H  0.80180144  0.38169911  0.27874687     0.05400
C365        C  0.86405555  0.38325283  0.55504324    -0.20400
C366        C  0.84682128  0.37420124  0.52400611    -0.06900
C367        C  0.83479172  0.33946428  0.51943420     0.13900
C368        C  0.84270911  0.31399394  0.54497831    -0.20400
C369        C  0.86187058  0.32278959  0.57504586    -0.07000
C370        C  0.87127303  0.35817067  0.58080018     0.13900
C371        C  0.88921142  0.36954156  0.61405853    -0.23800
H372        H  0.87274073  0.41002330  0.55874073     0.15200
H373        H  0.83530669  0.28691735  0.54076686     0.15200
C374        C  0.81515392  0.32890574  0.48699372    -0.23700
H375        H  0.89301855  0.39838052  0.61496447     0.05400
H376        H  0.91526943  0.35706696  0.61616658     0.08700
H377        H  0.87310155  0.36200587  0.63698969     0.08700
H378        H  0.83114175  0.33420849  0.46340971     0.08600
H379        H  0.79046113  0.34405781  0.48532513     0.08600
H380        H  0.80854235  0.30058218  0.48714555     0.05400
C381        C  0.86180376  0.55951596  0.38250808    -0.20400
C382        C  0.84684199  0.52756798  0.37245245    -0.06900
C383        C  0.83691207  0.52228739  0.33726770     0.13900
C384        C  0.84415243  0.54845495  0.31243655    -0.20400
C385        C  0.86118144  0.57953482  0.32214908    -0.07000
C386        C  0.86884806  0.58571066  0.35782877     0.13900
C387        C  0.88488612  0.61971470  0.36983278    -0.23800
H388        H  0.86902913  0.56350582  0.40966464     0.15200
H389        H  0.83856991  0.54371384  0.28502041     0.15200
C390        C  0.82083576  0.48823554  0.32558331    -0.23700
H391        H  0.88773778  0.62066787  0.39875567     0.05400
H392        H  0.86798635  0.64195283  0.36178099     0.08700
H393        H  0.91118196  0.62306484  0.35826396     0.08700
H394        H  0.79582108  0.48407276  0.33958738     0.08600
H395        H  0.83883863  0.46614947  0.33139631     0.08600
H396        H  0.81541520  0.48809971  0.29702809     0.05400
C397        C  0.85356017  0.56143558  0.50884241    -0.20400
C398        C  0.84104914  0.52886404  0.52012514    -0.06900
C399        C  0.83326301  0.52382331  0.55584657     0.13900
C400        C  0.84013994  0.55096555  0.57987489    -0.20400
C401        C  0.85497192  0.58271904  0.56885707    -0.07000
C402        C  0.86049409  0.58850765  0.53276477     0.13900
C403        C  0.87428719  0.62297769  0.51953869    -0.23800
H404        H  0.85934506  0.56515483  0.48130980     0.15200
H405        H  0.83613382  0.54655526  0.60760983     0.15200
C406        C  0.81985999  0.48914654  0.56880019    -0.23700
H407        H  0.87589645  0.62340255  0.49050619     0.05400
H408        H  0.90082256  0.62786967  0.52992542     0.08700
H409        H  0.85665191  0.64453235  0.52799972     0.08700
H410        H  0.83895009  0.46810456  0.56254387     0.08600
H411        H  0.79463083  0.48308620  0.55594581     0.08600
H412        H  0.81564523  0.48938971  0.59756984     0.05400
C413        C  0.09648640  0.18264524  0.22615746    -0.20400
C414        C  0.09814249  0.18752990  0.18967604    -0.06900
C415        C  0.07285152  0.20980568  0.17388658     0.13900
C416        C  0.05028720  0.22974242  0.19520179    -0.20400
C417        C  0.05030247  0.22637063  0.23174828    -0.07000
C418        C  0.07249642  0.20103651  0.24719242     0.13900
C419        C  0.07024929  0.19218004  0.28561315    -0.23800
H420        H  0.11460213  0.16478527  0.23864234     0.15200
H421        H  0.03222629  0.24793520  0.18305729     0.15200
C422        C  0.06708627  0.21212532  0.13494400    -0.23700
H423        H  0.08711694  0.16946237  0.29234523     0.05400
H424        H  0.04299001  0.18521844  0.29244997     0.08700
H425        H  0.07885901  0.21449189  0.30200407     0.08700
H426        H  0.08254013  0.19296486  0.11965303     0.08600
H427        H  0.07278006  0.23909653  0.12583470     0.08600
H428        H  0.03931205  0.20636306  0.12912759     0.05400
C429        C  0.02028428  0.30745901  0.36420829    -0.20400
C430        C  0.03372265  0.31304265  0.33043236    -0.06900
C431        C  0.05455503  0.34308332  0.32435086     0.13900
C432        C  0.06056036  0.36686814  0.35190599    -0.20400
C433        C  0.04464131  0.36263489  0.38470045    -0.07000
C434        C  0.02478174  0.33213474  0.39113562     0.13900
C435        C  0.00793084  0.32553363  0.42619637    -0.23800
H436        H  0.00429362  0.28455197  0.36890734     0.15200
H437        H  0.07563603  0.39033594  0.34689796     0.15200
C438        C  0.06875737  0.35256105  0.28881636    -0.23700
H439        H  0.99510222  0.29948855  0.42713305     0.05400
H440        H  0.98757927  0.34556388  0.43156103     0.08700
H441        H  0.02796582  0.32633444  0.44710864     0.08700
H442        H  0.05884415  0.37883872  0.28121029     0.08600
H443        H  0.06118060  0.33407039  0.26786899     0.08600
H444        H  0.09766831  0.35346198  0.28996242     0.05400
C445        C  0.05891781  0.33831573  0.52669209    -0.20400
C446        C  0.05571467  0.37370496  0.53586831    -0.06900
C447        C  0.04739972  0.38296028  0.57067109     0.13900
C448        C  0.03981062  0.35644966  0.59495272    -0.20400
C449        C  0.03996143  0.32099142  0.58497368    -0.07000
C450        C  0.05061139  0.31176197  0.55059863     0.13900
C451        C  0.05093344  0.27454667  0.53722372    -0.23800
H452        H  0.06523010  0.33136089  0.49988102     0.15200
H453        H  0.03164419  0.36347374  0.62123369     0.15200
C454        C  0.04553617  0.42083754  0.58178013    -0.23700
H455        H  0.07769995  0.26749227  0.52855844     0.05400
H456        H  0.03296614  0.27224993  0.51455025     0.08700
H457        H  0.04262812  0.25520856  0.55699975     0.08700
H458        H  0.02529335  0.43484771  0.56643231     0.08600
H459        H  0.07120310  0.43342691  0.57725642     0.08600
H460        H  0.03897414  0.42356648  0.60998350     0.05400
C461        C  0.00359841  0.56177088  0.34426020    -0.20400
C462        C  0.02811069  0.56304282  0.31691042    -0.06900
C463        C  0.05756864  0.54063983  0.31858582     0.13900
C464        C  0.06148987  0.51794669  0.34756513    -0.20400
C465        C  0.03574143  0.51548052  0.37384514    -0.07000
C466        C  0.00584390  0.53729744  0.37131383     0.13900
C467        C  0.97548843  0.53497663  0.39631416    -0.23800
H468        H  0.98123240  0.57918935  0.34351495     0.15200
H469        H  0.08415293  0.50097158  0.34893714     0.15200
C470        C  0.08392237  0.53906411  0.28937401    -0.23700
H471        H  0.95517025  0.55508665  0.39095626     0.05400
H472        H  0.98468930  0.53904812  0.42330210     0.08700
H473        H  0.96278324  0.50898475  0.39392750     0.08700
H474        H  0.09861019  0.56395352  0.28790631     0.08600
H475        H  0.07056421  0.53402315  0.26409008     0.08600
H476        H  0.10325148  0.51774411  0.29353577     0.05400
C477        C  0.06175412  0.52082379  0.56055386    -0.20400
C478        C  0.04610519  0.52538353  0.52758232    -0.06900
C479        C  0.02495555  0.55514238  0.52174884     0.13900
C480        C  0.01827406  0.57839995  0.54924227    -0.20400
C481        C  0.03102528  0.57217020  0.58301377    -0.07000
C482        C  0.05405012  0.54376384  0.58862277     0.13900
C483        C  0.06884546  0.53659240  0.62435244    -0.23800
H484        H  0.07811582  0.49806988  0.56496221     0.15200
H485        H  0.00106503  0.60058897  0.54491531     0.15200
C486        C  0.00806649  0.56179945  0.48691273    -0.23700
H487        H  0.08551740  0.51273198  0.62437386     0.05400
H488        H  0.04731876  0.53264883  0.64337814     0.08700
H489        H  0.08506433  0.55904535  0.63296058     0.08700
H490        H  0.98842366  0.54114950  0.48192470     0.08600
H491        H  0.02815762  0.56174271  0.46595404     0.08600
H492        H  0.99430247  0.58745329  0.48623335     0.05400
C493        C  0.80138988  0.70835752  0.22384354    -0.20400
C494        C  0.79463556  0.70096350  0.18839683    -0.06900
C495        C  0.81746491  0.67728058  0.17067213     0.13900
C496        C  0.84443027  0.66039178  0.18937014    -0.20400
C497        C  0.84934918  0.66634538  0.22524180    -0.07000
C498        C  0.82836366  0.69178302  0.24227485     0.13900
C499        C  0.83345845  0.70197212  0.28012423    -0.23800
H500        H  0.78491638  0.72662463  0.23792779     0.15200
H501        H  0.86061986  0.64100620  0.17632639     0.15200
C502        C  0.81373478  0.66908772  0.13227788    -0.23700
H503        H  0.83713247  0.73077195  0.28203983     0.05400
H504        H  0.85667418  0.68952365  0.29213574     0.08700
H505        H  0.81002218  0.69458684  0.29549300     0.08700
H506        H  0.81347403  0.69373578  0.11689483     0.08600
H507        H  0.78943371  0.65410555  0.12777471     0.08600
H508        H  0.83565341  0.65267892  0.12245298     0.05400
C509        C  0.67936410  0.82206405  0.24341469    -0.20400
C510        C  0.65967335  0.84505779  0.22277115    -0.06900
C511        C  0.66081302  0.84153958  0.18601156     0.13900
C512        C  0.68106608  0.81459179  0.17081657    -0.20400
C513        C  0.70047309  0.79097201  0.19144297    -0.07000
C514        C  0.69982253  0.79526625  0.22840965     0.13900
C515        C  0.71926877  0.77101883  0.25259859    -0.23800
H516        H  0.67801857  0.82466916  0.27165889     0.15200
H517        H  0.68125195  0.81159368  0.14259689     0.15200
C518        C  0.63961716  0.86537210  0.16292016    -0.23700
H519        H  0.71373407  0.77688262  0.28055873     0.05400
H520        H  0.74770251  0.77428194  0.24862903     0.08700
H521        H  0.71154819  0.74343383  0.24756914     0.08700
H522        H  0.64788691  0.89295056  0.16691114     0.08600
H523        H  0.61152265  0.86292734  0.16951578     0.08600
H524        H  0.64298165  0.85880100  0.13477256     0.05400
C525        C  0.32906175  0.83993544  0.32791612    -0.20400
C526        C  0.30187303  0.86259063  0.33807498    -0.06900
C527        C  0.30080205  0.87501600  0.37300471     0.13900
C528        C  0.32906237  0.86808960  0.39537120    -0.20400
C529        C  0.35765377  0.84785710  0.38421290    -0.07000
C530        C  0.35679622  0.83210272  0.35068928     0.13900
C531        C  0.38597957  0.80874207  0.33804916    -0.23800
H532        H  0.32971167  0.83002554  0.30130097     0.15200
H533        H  0.32923673  0.87918948  0.42153059     0.15200
C534        C  0.26974792  0.89501079  0.38699698    -0.23700
H535        H  0.38167949  0.79971807  0.31072665     0.05400
H536        H  0.38775091  0.78519425  0.35495001     0.08700
H537        H  0.41109950  0.82304231  0.33891899     0.08700
H538        H  0.24578368  0.87919482  0.38322088     0.08600
H539        H  0.26656326  0.92048745  0.37358506     0.08600
H540        H  0.27243385  0.90057446  0.41542376     0.05400
C541        C  0.35503343  0.82617733  0.53372115    -0.20400
C542        C  0.38731611  0.84329013  0.53482118    -0.06900
C543        C  0.39670518  0.86241353  0.56507194     0.13900
C544        C  0.37229995  0.86660464  0.59212333    -0.20400
C545        C  0.33835847  0.85316281  0.58919404    -0.07000
C546        C  0.33014106  0.83124459  0.56034720     0.13900
C547        C  0.29444875  0.81536888  0.55601371    -0.23800
H548        H  0.34823797  0.81106347  0.51065125     0.15200
H549        H  0.37873863  0.88296146  0.61444268     0.15200
C550        C  0.43214089  0.87909196  0.56862340    -0.23700
H551        H  0.29219225  0.80052969  0.53106286     0.05400
H552        H  0.27425779  0.83628564  0.55594636     0.08700
H553        H  0.28924363  0.79678073  0.57764449     0.08700
H554        H  0.43566865  0.89969748  0.54852518     0.08600
H555        H  0.45273778  0.85882097  0.56549076     0.08600
H556        H  0.43557595  0.89162299  0.59466867     0.05400
C557        C  0.53938429  0.83633788  0.35619480    -0.20400
C558        C  0.50732897  0.85412203  0.35609002    -0.06900
C559        C  0.49854874  0.87538154  0.32713175     0.13900
C560        C  0.52249073  0.87898851  0.29952436    -0.20400
C561        C  0.55581724  0.86350042  0.30085645    -0.07000
C562        C  0.56411016  0.84139233  0.32948019     0.13900
C563        C  0.59977851  0.82516700  0.33363130    -0.23800
H564        H  0.54603413  0.82017051  0.37852377     0.15200
H565        H  0.51610467  0.89602503  0.27777310     0.15200
C566        C  0.46429854  0.89483710  0.32538181    -0.23700
H567        H  0.60232687  0.81098736  0.35885641     0.05400
H568        H  0.62007829  0.84585170  0.33305956     0.08700
H569        H  0.60463817  0.80588632  0.31242165     0.08700
H570        H  0.46280250  0.91466038  0.34663515     0.08600
H571        H  0.44234874  0.87618132  0.32799583     0.08600
H572        H  0.46116515  0.90889802  0.30015326     0.05400
C573        C  0.53021824  0.83635992  0.54171366    -0.20400
C574        C  0.53379137  0.85067340  0.50815583    -0.06900
C575        C  0.56437420  0.86932327  0.49963856     0.13900
C576        C  0.59006038  0.87438518  0.52538453    -0.20400
C577        C  0.58538651  0.86238865  0.55986976    -0.07000
C578        C  0.55517497  0.84264145  0.56794135     0.13900
C579        C  0.54758031  0.83053805  0.60470353    -0.23800
H580        H  0.50657762  0.82223566  0.54810969     0.15200
H581        H  0.61301197  0.88968760  0.51917929     0.15200
C582        C  0.56971743  0.88434138  0.46357986    -0.23700
H583        H  0.52172677  0.81763025  0.60662381     0.05400
H584        H  0.54750132  0.85330215  0.62288673     0.08700
H585        H  0.56749081  0.81122769  0.61315807     0.08700
H586        H  0.54943127  0.90434667  0.45797769     0.08600
H587        H  0.56817752  0.86308428  0.44372625     0.08600
H588        H  0.59556215  0.89715906  0.46104660     0.05400
C589        C  0.23515947  0.05093782  0.18746045    -0.20400
C590        C  0.23081519  0.04726191  0.22370441    -0.06900
C591        C  0.20629002  0.06868493  0.24113646     0.13900
C592        C  0.18750680  0.09404880  0.22218957    -0.20400
C593        C  0.19280149  0.09918311  0.18599777    -0.07000
C594        C  0.21664524  0.07654796  0.16834039     0.13900
C595        C  0.22290349  0.07879846  0.12946117    -0.23800
H596        H  0.25409610  0.03439422  0.17424245     0.15200
H597        H  0.16930898  0.11073794  0.23620276     0.15200
C598        C  0.20024223  0.06502114  0.27992892    -0.23700
H599        H  0.24018179  0.05735397  0.11998354     0.05400
H600        H  0.23591260  0.10388465  0.12300398     0.08700
H601        H  0.19776732  0.07669289  0.11521557     0.08700
H602        H  0.22467437  0.07069271  0.29440408     0.08600
H603        H  0.19175281  0.03788102  0.28587031     0.08600
H604        H  0.17978857  0.08337204  0.28950118     0.05400
C605        C  0.39454328  0.02612467  0.32514938    -0.20400
C606        C  0.38445817  0.04557646  0.35468791    -0.06900
C607        C  0.35071113  0.06063144  0.35579292     0.13900
C608        C  0.32720300  0.05399703  0.32828592    -0.20400
C609        C  0.33657633  0.03260780  0.29976130    -0.07000
C610        C  0.37130382  0.01998923  0.29743824     0.13900
C611        C  0.38444948  0.99942522  0.26634838    -0.23800
H612        H  0.42059652  0.01503056  0.32397635     0.15200
H613        H  0.30057562  0.06342358  0.33031811     0.15200
C614        C  0.33851839  0.08145569  0.38710245    -0.23700
H615        H  0.40775889  0.01259773  0.25529845     0.05400
H616        H  0.36486400  0.99746744  0.24510390     0.08700
H617        H  0.39186733  0.97256494  0.27470153     0.08700
H618        H  0.35482891  0.10523633  0.39019591     0.08600
H619        H  0.34047403  0.06520036  0.41110143     0.08600
H620        H  0.31097242  0.09007304  0.38428640     0.05400
C621        C  0.33165605  0.02507462  0.49365472    -0.20400
C622        C  0.36099283  0.04398466  0.50474375    -0.06900
C623        C  0.36214506  0.05728031  0.53925587     0.13900
C624        C  0.33521218  0.04891925  0.56268969    -0.20400
C625        C  0.30714311  0.02771702  0.55238239    -0.07000
C626        C  0.30436861  0.01726548  0.51693000     0.13900
C627        C  0.27260510  0.99830986  0.50350221    -0.23800
H628        H  0.33054858  0.01562333  0.46688154     0.15200
H629        H  0.33720021  0.05710236  0.58981779     0.15200
C630        C  0.39284895  0.07822368  0.55212126    -0.23700
H631        H  0.27402390  0.99397126  0.47476814     0.05400
H632        H  0.24893912  0.01421372  0.50909148     0.08700
H633        H  0.26991142  0.97232143  0.51602509     0.08700
H634        H  0.39514627  0.10273688  0.53673044     0.08600
H635        H  0.41717263  0.06261626  0.54924542     0.08600
H636        H  0.39001682  0.08558439  0.58013377     0.05400
C637        C  0.56622889  0.03096641  0.39070107    -0.20400
C638        C  0.53564408  0.04745520  0.37898860    -0.06900
C639        C  0.53375212  0.05949406  0.34411754     0.13900
C640        C  0.56154155  0.05249001  0.32108820    -0.20400
C641        C  0.59108543  0.03368625  0.33212529    -0.07000
C642        C  0.59422817  0.02440442  0.36779354     0.13900
C643        C  0.62702878  0.00761599  0.38168505    -0.23800
H644        H  0.56777186  0.02223336  0.41763002     0.15200
H645        H  0.55912788  0.05952979  0.29371725     0.15200
C646        C  0.50145015  0.07742866  0.33049808    -0.23700
H647        H  0.62560939  0.00358061  0.41043538     0.05400
H648        H  0.64964333  0.02485187  0.37616460     0.08700
H649        H  0.63153091  0.98169757  0.36931150     0.08700
H650        H  0.49681553  0.10208520  0.34529544     0.08600
H651        H  0.47855682  0.05993217  0.33354675     0.08600
H652        H  0.50393008  0.08417259  0.30234319     0.05400
C653        C  0.49834402  0.03117934  0.56068190    -0.20400
C654        C  0.51059226  0.04671722  0.52981164    -0.06900
C655        C  0.54545941  0.05843949  0.52817295     0.13900
C656        C  0.56789735  0.05218514  0.55659807    -0.20400
C657        C  0.55628876  0.03451821  0.58662552    -0.07000
C658        C  0.52062478  0.02539995  0.58933540     0.13900
C659        C  0.50597966  0.00979277  0.62243338    -0.23800
H660        H  0.47137620  0.02277711  0.56204817     0.15200
H661        H  0.59524580  0.05906948  0.55444128     0.15200
C662        C  0.55960882  0.07543803  0.49559089    -0.23700
H663        H  0.47731811  0.00605693  0.62062144     0.05400
H664        H  0.51125036  0.02764869  0.64479506     0.08700
H665        H  0.51782814  0.98385996  0.62782543     0.08700
H666        H  0.54509093  0.10005301  0.49024850     0.08600
H667        H  0.55674980  0.05736880  0.47295954     0.08600
H668        H  0.58767199  0.08204182  0.49828722     0.05400
C669        C  0.38225634  0.33639391  0.83818794    -0.20400
C670        C  0.37220728  0.37151872  0.84255037    -0.06900
C671        C  0.33711216  0.37958849  0.85045066     0.13900
C672        C  0.31316405  0.35236176  0.85556602    -0.20400
C673        C  0.32358216  0.31718590  0.85339296    -0.07000
C674        C  0.35832779  0.30903663  0.84387725     0.13900
C675        C  0.37052866  0.27154593  0.84165004    -0.23800
H676        H  0.40925026  0.33034019  0.83218203     0.15200
H677        H  0.28660370  0.35847917  0.86325441     0.15200
C678        C  0.32515329  0.41698114  0.85441615    -0.23700
H679        H  0.39852098  0.26973179  0.83433694     0.05400
H680        H  0.35511680  0.25732882  0.82156940     0.08700
H681        H  0.36704821  0.25854492  0.86738152     0.08700
H682        H  0.33037444  0.43145365  0.82979322     0.08600
H683        H  0.33937874  0.42963064  0.87633447     0.08600
H684        H  0.29678811  0.41878342  0.86009369     0.05400
C685        C  0.52651762  0.35126452  0.83882812    -0.20400
C686        C  0.52757390  0.38469288  0.85406778    -0.06900
C687        C  0.55677469  0.39438077  0.87444220     0.13900
C688        C  0.58387331  0.37010524  0.87956822    -0.20400
C689        C  0.58197893  0.33580603  0.86615850    -0.07000
C690        C  0.55288503  0.32637587  0.84525059     0.13900
C691        C  0.54804994  0.28956083  0.83165808    -0.23800
H692        H  0.50395112  0.34397225  0.82338918     0.15200
H693        H  0.60597230  0.37735344  0.89569027     0.15200
C694        C  0.55940204  0.43016028  0.89111517    -0.23700
H695        H  0.52253743  0.28635223  0.81829788     0.05400
H696        H  0.54899601  0.27065267  0.85368178     0.08700
H697        H  0.56863553  0.28305615  0.81231430     0.08700
H698        H  0.53825951  0.43379243  0.91064608     0.08600
H699        H  0.55729127  0.45073346  0.87078500     0.08600
H700        H  0.58462730  0.43373384  0.90492490     0.05400
C701        C  0.33270372  0.51677760  0.85102006    -0.20400
C702        C  0.36489250  0.52426259  0.83555567    -0.06900
C703        C  0.37248633  0.55899352  0.82529565     0.13900
C704        C  0.34862713  0.58595421  0.83337884    -0.20400
C705        C  0.31762812  0.57857643  0.85135490    -0.07000
C706        C  0.30878729  0.54342836  0.85871562     0.13900
C707        C  0.27463967  0.53410391  0.87595571    -0.23800
H708        H  0.32704660  0.49022300  0.85894315     0.15200
H709        H  0.35515102  0.61297568  0.82773504     0.15200
C710        C  0.40671836  0.56792103  0.80820406    -0.23700
H711        H  0.27153809  0.50529691  0.87865487     0.05400
H712        H  0.25266545  0.54410998  0.85989094     0.08700
H713        H  0.27311500  0.54574244  0.90255279     0.08700
H714        H  0.40932270  0.55330584  0.78316475     0.08600
H715        H  0.42862248  0.56070842  0.82577162     0.08600
H716        H  0.40867344  0.59636126  0.80241898     0.05400
C717        C  0.50168228  0.56394856  0.86693996    -0.20400
C718        C  0.51109893  0.53568279  0.84531499    -0.06900
C719        C  0.54379843  0.53602126  0.82818539     0.13900
C720        C  0.56771224  0.56268850  0.83626123    -0.20400
C721        C  0.55934012  0.58922936  0.86044087    -0.07000
C722        C  0.52503903  0.59117524  0.87397527     0.13900
C723        C  0.51258354  0.62124088  0.89647494    -0.23800
H724        H  0.47607719  0.56445744  0.87903156     0.15200
H725        H  0.59389431  0.56137919  0.82559398     0.15200
C726        C  0.55445769  0.50732430  0.80316431    -0.23700
H727        H  0.48894903  0.63309388  0.88454189     0.05400
H728        H  0.53230929  0.64229637  0.89896708     0.08700
H729        H  0.50589963  0.61152649  0.92301201     0.08700
H730        H  0.53669250  0.50720649  0.78024894     0.08600
H731        H  0.55331337  0.48150509  0.81636947     0.08600
H732        H  0.58143880  0.51108791  0.79329492     0.05400
C733        C  0.71790396  0.67223342  0.08157490    -0.20400
C734        C  0.69891250  0.69744411  0.10091348    -0.06900
C735        C  0.66287971  0.70212043  0.09289745     0.13900
C736        C  0.64704281  0.68042529  0.06766522    -0.20400
C737        C  0.66593772  0.65451404  0.04983348    -0.07000
C738        C  0.70187472  0.65071802  0.05639742     0.13900
C739        C  0.72308683  0.62322703  0.03754172    -0.23800
H740        H  0.74547085  0.66879304  0.08648947     0.15200
H741        H  0.61941871  0.68315563  0.06223110     0.15200
C742        C  0.64025093  0.72899158  0.11105565    -0.23700
H743        H  0.75079966  0.62341244  0.04597923     0.05400
H744        H  0.72229916  0.62810137  0.00891890     0.08700
H745        H  0.71224755  0.59684195  0.04299273     0.08700
H746        H  0.65032875  0.75572432  0.10586843     0.08600
H747        H  0.63960761  0.72385438  0.13963131     0.08600
H748        H  0.61290156  0.72828404  0.10152507     0.05400
C749        C  0.19957720  0.24338920  0.05960477    -0.20400
C750        C  0.22323099  0.22449911  0.03888210    -0.06900
C751        C  0.22669641  0.18803594  0.04413638     0.13900
C752        C  0.20790663  0.17184547  0.07137477    -0.20400
C753        C  0.18581597  0.19117321  0.09386449    -0.07000
C754        C  0.18100040  0.22753503  0.08698243     0.13900
C755        C  0.15787560  0.25073023  0.10905529    -0.23800
H756        H  0.19705193  0.27138073  0.05539527     0.15200
H757        H  0.21132000  0.14400321  0.07569530     0.15200
C758        C  0.25147604  0.16647634  0.02224137    -0.23700
H759        H  0.15887058  0.27856692  0.10067562     0.05400
H760        H  0.16620780  0.24976528  0.13685554     0.08700
H761        H  0.13048209  0.24214982  0.10639356     0.08700
H762        H  0.27837041  0.17684683  0.02486539     0.08600
H763        H  0.24347481  0.16748413  0.99435484     0.08600
H764        H  0.25173310  0.13855650  0.03040294     0.05400
C765        C  0.33376661  0.37784946  0.02881381    -0.20400
C766        C  0.36118790  0.37049264  0.05185818    -0.06900
C767        C  0.36250843  0.33748743  0.06861000     0.13900
C768        C  0.33903693  0.31107213  0.05817762    -0.20400
C769        C  0.31389740  0.31758951  0.03228444    -0.07000
C770        C  0.30970789  0.35205146  0.01932010     0.13900
C771        C  0.28008486  0.36171521  0.99516936    -0.23800
H772        H  0.33207543  0.40361146  0.01699077     0.15200
H773        H  0.34137811  0.28492519  0.06894932     0.15200
C774        C  0.38933579  0.32965719  0.09627658    -0.23700
H775        H  0.27959538  0.39026938  0.98957813     0.05400
H776        H  0.25486373  0.35470715  0.00757684     0.08700
H777        H  0.28257758  0.34786836  0.96975943     0.08700
H778        H  0.38541777  0.34757352  0.11889741     0.08600
H779        H  0.41598447  0.33343472  0.08575046     0.08600
H780        H  0.38723832  0.30229918  0.10589966     0.05400
C781        C  0.52983897  0.29918627  0.02789575    -0.20400
C782        C  0.56380714  0.30445910  0.04057112    -0.06900
C783        C  0.57039191  0.33401333  0.06216255     0.13900
C784        C  0.54362687  0.35868955  0.06808745    -0.20400
C785        C  0.51098968  0.35522348  0.05194924    -0.07000
C786        C  0.50362048  0.32448827  0.03257440     0.13900
C787        C  0.46847859  0.31854462  0.01591276    -0.23800
H788        H  0.52461394  0.27637647  0.01176105     0.15200
H789        H  0.54902789  0.38213466  0.08321285     0.15200
C790        C  0.60606364  0.34114575  0.07696696    -0.23700
H791        H  0.46689950  0.29241386  0.00312831     0.05400
H792        H  0.46341917  0.33854068  0.99552150     0.08700
H793        H  0.44776406  0.31992683  0.03608059     0.08700
H794        H  0.62557010  0.34237452  0.05551617     0.08600
H795        H  0.61327582  0.32020911  0.09569405     0.08600
H796        H  0.60690713  0.36644723  0.09139390     0.05400
C797        C  0.33685627  0.51206993  0.04906581    -0.20400
C798        C  0.37229946  0.52075066  0.04597770    -0.06900
C799        C  0.38169000  0.55500507  0.03595996     0.13900
C800        C  0.35543751  0.57949669  0.02799652    -0.20400
C801        C  0.32000528  0.57042187  0.02951962    -0.07000
C802        C  0.31055330  0.53650708  0.04068229     0.13900
C803        C  0.27285693  0.52572584  0.04217295    -0.23800
H804        H  0.32978613  0.48557489  0.05633876     0.15200
H805        H  0.36257960  0.60549588  0.01919235     0.15200
C806        C  0.41944618  0.56543673  0.03306376    -0.23700
H807        H  0.26993355  0.49819896  0.05107494     0.05400
H808        H  0.26097774  0.52801242  0.01577588     0.08700
H809        H  0.25850177  0.54298363  0.06071106     0.08700
H810        H  0.43280830  0.54893742  0.01314437     0.08600
H811        H  0.43247928  0.56185329  0.05875311     0.08600
H812        H  0.42230595  0.59330055  0.02525269     0.05400
C813        C  0.52493738  0.54109845  0.05639364    -0.20400
C814        C  0.52821626  0.50601570  0.04589141    -0.06900
C815        C  0.55982649  0.49443599  0.03059347     0.13900
C816        C  0.58688625  0.51857546  0.02486944    -0.20400
C817        C  0.58298492  0.55418292  0.03358057    -0.07000
C818        C  0.55166398  0.56547132  0.04988651     0.13900
C819        C  0.54525469  0.60359941  0.05818567    -0.23800
H820        H  0.50056459  0.54987786  0.06788416     0.15200
H821        H  0.61065733  0.50997797  0.01203968     0.15200
C822        C  0.56495267  0.45664513  0.02004989    -0.23700
H823        H  0.51875537  0.60802626  0.06913094     0.05400
H824        H  0.54766310  0.61947933  0.03398795     0.08700
H825        H  0.56440086  0.61288784  0.07783993     0.08700
H826        H  0.54597535  0.44931955  0.99939874     0.08600
H827        H  0.56116985  0.43946085  0.04314619     0.08600
H828        H  0.59156151  0.45182323  0.00954339     0.05400
C829        C  0.82198724  0.20687934  0.17407370    -0.20400
C830        C  0.79742003  0.18754128  0.19336476    -0.06900
C831        C  0.79996201  0.18757385  0.23050472     0.13900
C832        C  0.82594392  0.20769744  0.24694636    -0.20400
C833        C  0.84961960  0.22784601  0.22762400    -0.07000
C834        C  0.84797758  0.22693100  0.19066174     0.13900
C835        C  0.87243986  0.24845865  0.16861531    -0.23800
H836        H  0.82039022  0.20693062  0.14575063     0.15200
H837        H  0.82717279  0.20864020  0.27528542     0.15200
C838        C  0.77445216  0.16819793  0.25340187    -0.23700
H839        H  0.86663582  0.24580293  0.14025379     0.05400
H840        H  0.89971339  0.23967197  0.17280784     0.08700
H841        H  0.87001047  0.27658725  0.17577798     0.08700
H842        H  0.77694611  0.13955584  0.24899442     0.08600
H843        H  0.74743042  0.17694312  0.24759676     0.08600
H844        H  0.77929751  0.17304345  0.28166397     0.05400
C845        C  0.71266718  0.22697021  0.09695941    -0.20400
C846        C  0.70954379  0.19025217  0.09850301    -0.06900
C847        C  0.68899287  0.17308910  0.07267498     0.13900
C848        C  0.67054674  0.19318457  0.04791745    -0.20400
C849        C  0.67177869  0.22987510  0.04830137    -0.07000
C850        C  0.69392288  0.24691071  0.07241896     0.13900
C851        C  0.69758142  0.28621470  0.07250001    -0.23800
H852        H  0.72866483  0.24043710  0.11607099     0.15200
H853        H  0.65371088  0.18025710  0.02914009     0.15200
C854        C  0.68623779  0.13371316  0.07068198    -0.23700
H855        H  0.71691052  0.29520687  0.09218229     0.05400
H856        H  0.67226259  0.29872453  0.07888119     0.08700
H857        H  0.70636216  0.29517386  0.04632007     0.08700
H858        H  0.67178415  0.12353152  0.09364083     0.08600
H859        H  0.71271035  0.12188406  0.06958269     0.08600
H860        H  0.67185888  0.12510152  0.04695358     0.05400
C861        C  0.66889177  0.09948420  0.18932493    -0.20400
C862        C  0.70543300  0.09719842  0.18769893    -0.06900
C863        C  0.72232453  0.06815673  0.20341066     0.13900
C864        C  0.70246711  0.04367017  0.22235605    -0.20400
C865        C  0.66624622  0.04754207  0.22606019    -0.07000
C866        C  0.64911331  0.07514508  0.20831974     0.13900
C867        C  0.60993798  0.07888067  0.20900503    -0.23800
H868        H  0.65575082  0.12126191  0.17675289     0.15200
H869        H  0.71541510  0.02206986  0.23542460     0.15200
C870        C  0.76104908  0.06238197  0.19974468    -0.23700
H871        H  0.60089216  0.10060387  0.19194436     0.05400
H872        H  0.60061532  0.08462632  0.23587829     0.08700
H873        H  0.59775378  0.05427025  0.19951570     0.08700
H874        H  0.77558817  0.08353292  0.21321331     0.08600
H875        H  0.76827238  0.06183618  0.17159139     0.08600
H876        H  0.76934511  0.03711529  0.21152606     0.05400
C877        C  0.20286849  0.64992906  0.82089395    -0.20400
C878        C  0.22408132  0.66865828  0.84419515    -0.06900
C879        C  0.22554726  0.70555251  0.84150068     0.13900
C880        C  0.20601820  0.72268414  0.81535655    -0.20400
C881        C  0.18546211  0.70383883  0.79130834    -0.07000
C882        C  0.18405925  0.66674561  0.79423347     0.13900
C883        C  0.16508822  0.64412198  0.76802372    -0.23800
H884        H  0.20248169  0.62156096  0.82253952     0.15200
H885        H  0.20753961  0.75095164  0.81311767     0.15200
C886        C  0.24912631  0.72670679  0.86487886    -0.23700
H887        H  0.16959661  0.61575330  0.77274718     0.05400
H888        H  0.17438122  0.65001864  0.74114229     0.08700
H889        H  0.13662320  0.64864667  0.76987957     0.08700
H890        H  0.27652341  0.71774067  0.86164527     0.08600
H891        H  0.24115329  0.72349009  0.89260334     0.08600
H892        H  0.24800689  0.75508693  0.85855931     0.05400
C893        C  0.21063327  0.81786750  0.71963936    -0.20400
C894        C  0.18924342  0.79529073  0.69992198    -0.06900
C895        C  0.18912649  0.79862229  0.66283448     0.13900
C896        C  0.21122084  0.82307079  0.64681269    -0.20400
C897        C  0.23309700  0.84469328  0.66653543    -0.07000
C898        C  0.23238074  0.84264192  0.70337543     0.13900
C899        C  0.25537885  0.86579468  0.72538498    -0.23800
H900        H  0.21075424  0.81575504  0.74792645     0.15200
H901        H  0.21208836  0.82486999  0.61849557     0.15200
C902        C  0.16711177  0.77576977  0.63948405    -0.23700
H903        H  0.25196113  0.86061214  0.75377526     0.05400
H904        H  0.24884388  0.89372580  0.72052004     0.08700
H905        H  0.28315796  0.86109144  0.71856481     0.08700
H906        H  0.13911715  0.78143428  0.64423904     0.08600
H907        H  0.17294040  0.74771021  0.64450801     0.08600
H908        H  0.17216358  0.78076166  0.61130051     0.05400
C909        C  0.04017987  0.67374863  0.70280589    -0.20400
C910        C  0.04072827  0.67253432  0.66611233    -0.06900
C911        C  0.06470046  0.69370520  0.64776141     0.13900
C912        C  0.08987375  0.71256763  0.66652343    -0.20400
C913        C  0.09152775  0.71141269  0.70327556    -0.07000
C914        C  0.06506318  0.69318983  0.72168674     0.13900
C915        C  0.06225017  0.69462735  0.76102482    -0.23800
H916        H  0.02106521  0.65824949  0.71676630     0.15200
H917        H  0.10931627  0.72704841  0.65210884     0.15200
C918        C  0.06366842  0.69680127  0.60839628    -0.23700
H919        H  0.03819174  0.68156121  0.77049638     0.05400
H920        H  0.06136724  0.72236490  0.76986633     0.08700
H921        H  0.08461348  0.68110946  0.77337609     0.08700
H922        H  0.03728306  0.70541760  0.60004832     0.08600
H923        H  0.06999114  0.67141861  0.59573414     0.08600
H924        H  0.08278892  0.71631771  0.59869121     0.05400
C925        C  0.23094105  0.17711096  0.79287311    -0.20400
C926        C  0.19570745  0.18651226  0.78732331    -0.06900
C927        C  0.18097594  0.21287101  0.80933254     0.13900
C928        C  0.20188278  0.22924627  0.83492098    -0.20400
C929        C  0.23709327  0.22033950  0.83928618    -0.07000
C930        C  0.25164398  0.19357448  0.81830359     0.13900
C931        C  0.28904095  0.18178942  0.82193236    -0.23800
H932        H  0.24303515  0.15701463  0.77681198     0.15200
H933        H  0.19097570  0.25002789  0.85100308     0.15200
C934        C  0.14342964  0.22410062  0.80660769    -0.23700
H935        H  0.28977936  0.15329753  0.82775096     0.05400
H936        H  0.30312445  0.19548883  0.84325793     0.08700
H937        H  0.30315761  0.18656828  0.79701911     0.08700
H938        H  0.12632052  0.20111603  0.81077407     0.08600
H939        H  0.13845013  0.23608202  0.78065729     0.08600
H940        H  0.13644673  0.24401928  0.82670772     0.05400
C941        C  0.09585977  0.17732943  0.66353364    -0.20400
C942        C  0.09827725  0.17984820  0.70022419    -0.06900
C943        C  0.07155477  0.19814657  0.71849037     0.13900
C944        C  0.04619241  0.21695032  0.69951887    -0.20400
C945        C  0.04554403  0.21637975  0.66280569    -0.07000
C946        C  0.06963637  0.19476837  0.64475625     0.13900
C947        C  0.06863364  0.18987899  0.60560213    -0.23800
H948        H  0.11523635  0.16244762  0.64904306     0.15200
H949        H  0.02724910  0.23284336  0.71352004     0.15200
C950        C  0.06806123  0.19754696  0.75770735    -0.23700
H951        H  0.06698384  0.16148242  0.59937180     0.05400
H952        H  0.09276284  0.20065044  0.59374931     0.08700
H953        H  0.04575561  0.20273609  0.59338858     0.08700
H954        H  0.07301970  0.22410245  0.76851028     0.08600
H955        H  0.08572288  0.17829633  0.77012679     0.08600
H956        H  0.04114362  0.18959575  0.76483568     0.05400
C957        C  0.23095966  0.09357976  0.69777657    -0.20400
C958        C  0.19423679  0.09365207  0.69741518    -0.06900
C959        C  0.17667733  0.06665982  0.67886093     0.13900
C960        C  0.19621154  0.04181948  0.65982685    -0.20400
C961        C  0.23267706  0.04333850  0.65857166    -0.07000
C962        C  0.25033598  0.06888483  0.67853756     0.13900
C963        C  0.28962514  0.07001241  0.67974387    -0.23800
H964        H  0.24472440  0.11369716  0.71225864     0.15200
H965        H  0.18291914  0.02178642  0.64476421     0.15200
C966        C  0.13751121  0.06337772  0.67914892    -0.23700
H967        H  0.29914841  0.09078820  0.69774585     0.05400
H968        H  0.30036373  0.07548071  0.65336571     0.08700
H969        H  0.29986754  0.04445100  0.68909858     0.08700
H970        H  0.12543759  0.08572256  0.66510064     0.08600
H971        H  0.12789644  0.06257109  0.70655966     0.08600
H972        H  0.12875952  0.03902558  0.66583694     0.05400
C973        C  0.64399190  0.21737728  0.82135985    -0.20400
C974        C  0.66407423  0.23522248  0.84631826    -0.06900
C975        C  0.70080453  0.23382967  0.84373017     0.13900
C976        C  0.71648800  0.21466731  0.81623702    -0.20400
C977        C  0.69640148  0.19691739  0.79096557    -0.07000
C978        C  0.65944850  0.19849607  0.79371468     0.13900
C979        C  0.63577949  0.18228777  0.76665610    -0.23800
H980        H  0.61580587  0.21918101  0.82298642     0.15200
H981        H  0.74467261  0.21392958  0.81422220     0.15200
C982        C  0.72344073  0.25384037  0.86897490    -0.23700
H983        H  0.60794171  0.18881325  0.77153732     0.05400
H984        H  0.63807865  0.15334904  0.76727295     0.08700
H985        H  0.64260721  0.19217949  0.74022138     0.08700
H986        H  0.71931363  0.24401978  0.89596342     0.08600
H987        H  0.71678238  0.28216871  0.86798017     0.08600
H988        H  0.75156322  0.25089662  0.86259964     0.05400
C989        C  0.80093983  0.22795013  0.71313412    -0.20400
C990        C  0.79111003  0.19409795  0.70184876    -0.06900
C991        C  0.81076111  0.17841150  0.67410878     0.13900
C992        C  0.83761513  0.19754939  0.65775658    -0.20400
C993        C  0.84565098  0.23184475  0.66795388    -0.07000
C994        C  0.82765458  0.24691627  0.69646978     0.13900
C995        C  0.83645903  0.28327989  0.70906216    -0.23800
H996        H  0.78698686  0.24034192  0.73452066     0.15200
H997        H  0.85160104  0.18618470  0.63578572     0.15200
C998        C  0.80390466  0.14179752  0.66085694    -0.23700
H999        H  0.82045854  0.29105712  0.73206988     0.05400
H1000       H  0.83167593  0.30258801  0.68791796     0.08700
H1001       H  0.86435362  0.28429407  0.71677039     0.08700
H1002       H  0.77781304  0.14050901  0.64842241     0.08600
H1003       H  0.80572672  0.12281679  0.68275776     0.08600
H1004       H  0.82318538  0.13358607  0.64069614     0.05400
C1005       C  0.66124599  0.05107050  0.70105803    -0.20400
C1006       C  0.66033378  0.05099718  0.66434707    -0.06900
C1007       C  0.68063288  0.07570493  0.64589995     0.13900
C1008       C  0.69945793  0.10123850  0.66453085    -0.20400
C1009       C  0.69859010  0.10296881  0.70130523    -0.07000
C1010       C  0.68014516  0.07661890  0.71981292     0.13900
C1011       C  0.68082410  0.07458945  0.75920972    -0.23800
H1012       H  0.64613966  0.03169737  0.71512730     0.15200
H1013       H  0.71394522  0.12079359  0.65009875     0.15200
C1014       C  0.68270766  0.07506458  0.60648921    -0.23700
H1015       H  0.66749799  0.05069712  0.76891141     0.05400
H1016       H  0.66723033  0.09745144  0.77088153     0.08700
H1017       H  0.70823848  0.07375532  0.76850931     0.08700
H1018       H  0.65677788  0.08052176  0.59488531     0.08600
H1019       H  0.69196613  0.04892655  0.59754656     0.08600
H1020       H  0.70110387  0.09508043  0.59640773     0.05400
C1021       C  0.22842106  0.79263806  0.19523221    -0.20400
C1022       C  0.19176457  0.79182885  0.19421302    -0.06900
C1023       C  0.17292523  0.81910385  0.21110381     0.13900
C1024       C  0.19111381  0.84518783  0.22979921    -0.20400
C1025       C  0.22759588  0.84459151  0.23229219    -0.07000
C1026       C  0.24650651  0.81848474  0.21402013     0.13900
C1027       C  0.28584488  0.81789575  0.21407063    -0.23800
H1028       H  0.24316882  0.77221738  0.18217197     0.15200
H1029       H  0.17674350  0.86544167  0.24364632     0.15200
C1030       C  0.13379770  0.82114452  0.20945330    -0.23700
H1031       H  0.29637265  0.79676204  0.19697712     0.05400
H1032       H  0.29585799  0.81327296  0.24087446     0.08700
H1033       H  0.29590383  0.84330975  0.20429227     0.08700
H1034       H  0.12244527  0.79882976  0.22395031     0.08600
H1035       H  0.12506534  0.82062254  0.18175044     0.08600
H1036       H  0.12368666  0.84560357  0.22166708     0.05400
C1037       C  0.17900356  0.68000084  0.07767022    -0.20400
C1038       C  0.19731127  0.70274711  0.10021230    -0.06900
C1039       C  0.23361344  0.70778863  0.09401583     0.13900
C1040       C  0.25018540  0.68945745  0.06665346    -0.20400
C1041       C  0.23202907  0.66603887  0.04515006    -0.07000
C1042       C  0.19582211  0.66154578  0.05045114     0.13900
C1043       C  0.17435260  0.63648511  0.02889515    -0.23800
H1044       H  0.15133487  0.67588798  0.08171009     0.15200
H1045       H  0.27802767  0.69242729  0.06269239     0.15200
C1046       C  0.25598372  0.73085252  0.11685244    -0.23700
H1047       H  0.15310139  0.65112067  0.01561713     0.05400
H1048       H  0.16261859  0.61643635  0.04627805     0.08700
H1049       H  0.18973503  0.62259841  0.00856600     0.08700
H1050       H  0.25458900  0.72175988  0.14438714     0.08600
H1051       H  0.24728708  0.75853470  0.11480700     0.08600
H1052       H  0.28384911  0.73008126  0.10890403     0.05400
C1053       C  0.10568722  0.66009976  0.18975933    -0.20400
C1054       C  0.10349144  0.69684598  0.18942731    -0.06900
C1055       C  0.07424341  0.71303437  0.20575091     0.13900
C1056       C  0.04997647  0.69235086  0.22420682    -0.20400
C1057       C  0.05293066  0.65566850  0.22535646    -0.07000
C1058       C  0.08055969  0.63937602  0.20655560     0.13900
C1059       C  0.08407503  0.60013784  0.20258443    -0.23800
H1060       H  0.12737512  0.64719288  0.17675555     0.15200
H1061       H  0.02841896  0.70502526  0.23763223     0.15200
C1062       C  0.06660330  0.75164429  0.20294374    -0.23700
H1063       H  0.08617845  0.59336429  0.17436699     0.05400
H1064       H  0.06143884  0.58545476  0.21283322     0.08700
H1065       H  0.10802741  0.59103072  0.21614921     0.08700
H1066       H  0.08410299  0.76525369  0.18444273     0.08600
H1067       H  0.06852019  0.76402306  0.22919957     0.08600
H1068       H  0.03968421  0.75543309  0.19291332     0.05400
C1069       C  0.79665906  0.67002341  0.71334899    -0.20400
C1070       C  0.78883603  0.70502227  0.70424708    -0.06900
C1071       C  0.80936647  0.72127984  0.67785450     0.13900
C1072       C  0.83547922  0.70169625  0.66056846    -0.20400
C1073       C  0.84166386  0.66643543  0.66873282    -0.07000
C1074       C  0.82250628  0.65062384  0.69583125     0.13900
C1075       C  0.82896147  0.61297493  0.70584085    -0.23800
H1076       H  0.78169050  0.65708495  0.73356883     0.15200
H1077       H  0.85034690  0.71356487  0.63958908     0.15200
C1078       C  0.80427807  0.75903723  0.66745682    -0.23700
H1079       H  0.81208991  0.60469985  0.72795368     0.05400
H1080       H  0.85658143  0.60960432  0.71389234     0.08700
H1081       H  0.82348483  0.59550724  0.68323319     0.08700
H1082       H  0.80640122  0.77621777  0.69086315     0.08600
H1083       H  0.77845294  0.76256376  0.65486483     0.08600
H1084       H  0.82426818  0.76766342  0.64829057     0.05400
C1085       C  0.71365557  0.81870391  0.68709073    -0.20400
C1086       C  0.69396431  0.79414443  0.70614222    -0.06900
C1087       C  0.65700236  0.79722986  0.70577556     0.13900
C1088       C  0.64113024  0.82384442  0.68580480    -0.20400
C1089       C  0.66090875  0.84765331  0.66621356    -0.07000
C1090       C  0.69763054  0.84526404  0.66718090     0.13900
C1091       C  0.71990074  0.86972482  0.64591294    -0.23800
H1092       H  0.74185318  0.81667994  0.68716159     0.15200
H1093       H  0.61292301  0.82546976  0.68451376     0.15200
C1094       C  0.63378374  0.77163139  0.72462254    -0.23700
H1095       H  0.74811572  0.86381501  0.64893997     0.05400
H1096       H  0.71538148  0.89717091  0.65452538     0.08700
H1097       H  0.71319103  0.86722094  0.61774748     0.08700
H1098       H  0.63786966  0.77373397  0.75327679     0.08600
H1099       H  0.63950924  0.74451325  0.71563626     0.08600
H1100       H  0.60572823  0.77689924  0.71959546     0.05400
C1101       C  0.66826181  0.69789153  0.85231406    -0.20400
C1102       C  0.66717349  0.66120788  0.84958803    -0.06900
C1103       C  0.68489320  0.64452008  0.82163682     0.13900
C1104       C  0.70139661  0.66493302  0.79611481    -0.20400
C1105       C  0.70070497  0.70175947  0.79746289    -0.07000
C1106       C  0.68473941  0.71843229  0.82656137     0.13900
C1107       C  0.68524704  0.75767721  0.83088988    -0.23800
H1108       H  0.65467506  0.71059305  0.87379735     0.15200
H1109       H  0.71400172  0.65179412  0.77427643     0.15200
C1110       C  0.68645794  0.60520406  0.81762600    -0.23700
H1111       H  0.67349725  0.76595505  0.85619573     0.05400
H1112       H  0.67007380  0.77032728  0.80970600     0.08700
H1113       H  0.71257226  0.76719699  0.83024217     0.08700
H1114       H  0.67313280  0.59735028  0.79304184     0.08600
H1115       H  0.67414136  0.59113188  0.83974198     0.08600
H1116       H  0.71412582  0.59662021  0.81630690     0.05400
loop_ 
_geom_bond_atom_site_label_1 
_geom_bond_atom_site_label_2 
_geom_bond_distance 
_geom_bond_site_symmetry_2 
_ccdc_geom_bond_type 
C1            N2   1.364       .  A
C1            N6   1.363       .  A
C1         C1086   1.499       .  S
N2            C3   1.361       .  A
C3            N4   1.358       .  A
C3         C1070   1.502       .  S
N4            C5   1.357       .  A
C5            N6   1.361       .  A
C5         C1105   1.489       .  S
C7            N8   1.363       .  A
C7           N12   1.358       .  A
C7         C1038   1.504       .  S
N8            C9   1.365       .  A
C9           N10   1.364       .  A
C9         C1054   1.497       .  S
N10          C11   1.362       .  A
C11          N12   1.359       .  A
C11        C1022   1.494       .  S
C13          N14   1.362       .  A
C13          N18   1.366       .  A
C13         C990   1.511       .  S
N14          C15   1.361       .  A
C15          N16   1.358       .  A
C15        C1009   1.496       .  S
N16          C17   1.359       .  A
C17          N18   1.364       .  A
C17         C977   1.498       .  S
C19          N20   1.356       .  A
C19          N24   1.358       .  A
C19         C958   1.492       .  S
N20          C21   1.359       .  A
C21          N22   1.366       .  A
C21         C942   1.496       .  S
N22          C23   1.366       .  A
C23          N24   1.361       .  A
C23         C926   1.507       .  S
C25          N26   1.359       .  A
C25          N30   1.363       .  A
C25         C894   1.494       .  S
N26          C27   1.359       .  A
C27          N28   1.358       .  A
C27         C913   1.491       .  S
N28          C29   1.359       .  A
C29          N30   1.363       .  A
C29         C881   1.494       .  S
C31          N32   1.359       .  A
C31          N36   1.363       .  A
C31         C846   1.497       .  S
N32          C33   1.359       .  A
C33          N34   1.358       .  A
C33         C862   1.487       .  S
N34          C35   1.360       .  A
C35          N36   1.363       .  A
C35         C830   1.497       .  S
O37         Cu45   1.993       .  S
O37          C47   1.277       .  A
O38         Cu45   2.004       .  S
O38          C48   1.276       .  A
O39         Cu45   1.998       .  S
O39          C49   1.276       .  A
O40         Cu45   2.003       .  S
O40          C50   1.276       .  A
O41         Cu46   2.035       .  S
O41          C50   1.280       .  A
O42         Cu46   2.030       .  S
O42          C49   1.280       .  A
O43         Cu46   2.035       .  S
O43          C48   1.280       .  A
O44         Cu46   2.028       .  S
O44          C47   1.279       .  A
Cu45        Cu46   2.372       .  S
C47         C766   1.478       .  S
C48         C814   1.481       .  S
C49         C785   1.480       .  S
C50         C798   1.478       .  S
C51         C750   1.488       .  S
C51          C52   1.406       .  A
C51          C56   1.418   1_554  A
C52          C53   1.391       .  A
C52          H57   1.084       .  S
C53         C769   1.483       .  S
C53          C54   1.394   1_554  A
C54          C55   1.414       .  A
C54          H58   1.076       .  S
C55         C105   1.520       .  S
C55          C56   1.421       .  A
C56          H59   1.080       .  S
C60        C1041   1.486       .  S
C60          C61   1.406       .  A
C60          C65   1.416   1_554  A
C61          C62   1.394       .  A
C61          H66   1.084       .  S
C62         C801   1.485       .  S
C62          C63   1.395   1_554  A
C63          C64   1.419       .  A
C63          H67   1.078       .  S
C64         C112   1.519       .  S
C64          C65   1.418       .  A
C65          H68   1.081       .  S
C69         C849   1.486       .  S
C69          C70   1.407       .  A
C69          C74   1.416   1_554  A
C70          C71   1.398       .  A
C70          H75   1.083       .  S
C71         C782   1.493       .  S
C71          C72   1.398   1_554  A
C72          C73   1.411       .  A
C72          H76   1.080       .  S
C73         C121   1.511       .  S
C73          C74   1.415       .  A
C74          H77   1.082       .  S
C78         C737   1.482       .  S
C78          C79   1.410   1_554  A
C78          C83   1.407       .  A
C79          C80   1.411       .  A
C79          H84   1.082       .  S
C80         C132   1.505       .  S
C80          C81   1.413       .  A
C81          C82   1.398   1_556  A
C81          H85   1.081       .  S
C82         C817   1.491       .  S
C82          C83   1.401       .  A
C83          H86   1.083       .  S
O87         Cu95   2.027       .  S
O87          C97   1.279       .  A
O88         Cu95   2.016       .  S
O88          C98   1.278       .  A
O89         Cu95   2.024       .  S
O89          C99   1.279       .  A
O90         Cu95   2.026       .  S
O90         C100   1.279       .  A
O91         Cu96   1.990       .  S
O91         C100   1.275       .  A
O92         Cu96   2.003       .  S
O92          C99   1.276       .  A
O93         Cu96   2.000       .  S
O93          C98   1.277       .  A
O94         Cu96   2.007       .  S
O94          C97   1.277       .  A
Cu95        Cu96   2.374       .  S
C97         C670   1.477       .  S
C98         C718   1.477       .  S
C99         C686   1.479       .  S
C100        C702   1.471       .  S
C101        C929   1.484       .  S
C101        C102   1.405       .  A
C101        C106   1.415       .  A
C102        C103   1.394       .  A
C102        H107   1.084       .  S
C103        C673   1.483       .  S
C103        C104   1.395       .  A
C104        C105   1.417       .  A
C104        H108   1.075       .  S
C105        C106   1.418       .  A
C106        H109   1.080       .  S
C110        C878   1.489       .  S
C110        C111   1.419       .  A
C110        C115   1.405       .  A
C111        C112   1.422       .  A
C111        H116   1.080       .  S
C112        C113   1.412       .  A
C113        C114   1.393       .  A
C113        H117   1.078       .  S
C114        C705   1.476       .  S
C114        C115   1.389       .  A
C115        H118   1.084       .  S
C119        C974   1.491       .  S
C119        C120   1.417       .  A
C119        C124   1.407       .  A
C120        C121   1.416       .  A
C120        H125   1.082       .  S
C121        C122   1.412       .  A
C122        C123   1.397       .  A
C122        H126   1.080       .  S
C123        C689   1.493       .  S
C123        C124   1.398       .  A
C124        H127   1.083       .  S
C128       C1102   1.483       .  S
C128        C129   1.405       .  A
C128        C133   1.414       .  A
C129        C130   1.395       .  A
C129        H134   1.084       .  S
C130        C721   1.483       .  S
C130        C131   1.396       .  A
C131        C132   1.408       .  A
C131        H135   1.080       .  S
C132        C133   1.416       .  A
C133        H136   1.082       .  S
O137       Cu145   2.013       .  S
O137        C147   1.278       .  A
O138       Cu145   2.012       .  S
O138        C148   1.278       .  A
O139       Cu145   2.006       .  S
O139        C149   1.277       .  A
O140       Cu145   2.003       .  S
O140        C150   1.277       .  A
O141       Cu146   2.022       .  S
O141        C150   1.279       .  A
O142       Cu146   2.024       .  S
O142        C149   1.279       .  A
O143       Cu146   2.023       .  S
O143        C148   1.279       .  A
O144       Cu146   2.024       .  S
O144        C147   1.279       .  A
Cu145      Cu146   2.371       .  S
C147        C654   1.480       .  S
C148        C606   1.482       .  S
C149        C638   1.478       .  S
C150        C622   1.477       .  S
C151        C590   1.488       .  S
C151        C152   1.416   1_545  A
C151        C156   1.408       .  A
C152        C153   1.415       .  A
C152        H157   1.082       .  S
C153        C203   1.507       .  S
C153        C154   1.410       .  A
C154        C155   1.397   1_565  A
C154        H158   1.081       .  S
C155        C609   1.490       .  S
C155        C156   1.400       .  A
C156        H159   1.084       .  S
C160        C865   1.486       .  S
C160        C161   1.407       .  A
C160        C165   1.414   1_545  A
C161        C162   1.397       .  A
C161        H166   1.084       .  S
C162        C641   1.486       .  S
C162        C163   1.396   1_545  A
C163        C164   1.412       .  A
C163        H167   1.081       .  S
C164        C212   1.505       .  S
C164        C165   1.413       .  A
C165        H168   1.083       .  S
C169        C961   1.480       .  S
C169        C170   1.409   1_545  A
C169        C174   1.404       .  A
C170        C171   1.411       .  A
C170        H175   1.082       .  S
C171        C223   1.503       .  S
C171        C172   1.412       .  A
C172        C173   1.399   1_565  A
C172        H176   1.080       .  S
C173        C625   1.485       .  S
C173        C174   1.398       .  A
C174        H177   1.084       .  S
C178       C1006   1.490       .  S
C178        C179   1.416   1_545  A
C178        C183   1.409       .  A
C179        C180   1.415       .  A
C179        H184   1.082       .  S
C180        C230   1.508       .  S
C180        C181   1.411       .  A
C181        C182   1.395   1_565  A
C181        H185   1.081       .  S
C182        C657   1.489       .  S
C182        C183   1.399       .  A
C183        H186   1.084       .  S
O187       Cu195   2.026       .  S
O187        C197   1.279       .  A
O188       Cu195   2.027       .  S
O188        C198   1.280       .  A
O189       Cu195   2.022       .  S
O189        C199   1.279       .  A
O190       Cu195   2.020       .  S
O190        C200   1.278       .  A
O191       Cu196   2.001       .  S
O191        C200   1.277       .  A
O192       Cu196   2.006       .  S
O192        C199   1.277       .  A
O193       Cu196   2.005       .  S
O193        C198   1.277       .  A
O194       Cu196   2.006       .  S
O194        C197   1.277       .  A
Cu195      Cu196   2.371       .  S
C197        C574   1.479       .  S
C198        C529   1.482       .  S
C199        C558   1.481       .  S
C200        C542   1.476       .  S
C201       C1025   1.486       .  S
C201        C202   1.414       .  A
C201        C206   1.406       .  A
C202        C203   1.414       .  A
C202        H207   1.082       .  S
C203        C204   1.412       .  A
C204        C205   1.397       .  A
C204        H208   1.080       .  S
C205        C526   1.489       .  S
C205        C206   1.398       .  A
C206        H209   1.084       .  S
C210        C510   1.488       .  S
C210        C211   1.415       .  A
C210        C215   1.407       .  A
C211        C212   1.414       .  A
C211        H216   1.082       .  S
C212        C213   1.409       .  A
C213        C214   1.397       .  A
C213        H217   1.081       .  S
C214        C561   1.493       .  S
C214        C215   1.401       .  A
C215        H218   1.083       .  S
C219        C897   1.480       .  S
C219        C220   1.405       .  A
C219        C224   1.410       .  A
C220        C221   1.399       .  A
C220        H225   1.083       .  S
C221        C545   1.488       .  S
C221        C222   1.399       .  A
C222        C223   1.408       .  A
C222        H226   1.081       .  S
C223        C224   1.412       .  A
C224        H227   1.082       .  S
C228       C1089   1.489       .  S
C228        C229   1.417       .  A
C228        C233   1.408       .  A
C229        C230   1.415       .  A
C229        H234   1.082       .  S
C230        C231   1.411       .  A
C231        C232   1.396       .  A
C231        H235   1.081       .  S
C232        C577   1.492       .  S
C232        C233   1.400       .  A
C233        H236   1.083       .  S
C237        N238   1.364       .  A
C237        N242   1.361       .  A
C237        C494   1.504       .  S
N238        C239   1.362       .  A
C239        N240   1.360       .  A
C239        C513   1.499       .  S
N240        C241   1.360       .  A
C241        N242   1.363       .  A
C241        C734   1.504       .  S
O243       Cu251   2.039       .  S
O243        C253   1.280       .  A
O244       Cu251   2.031       .  S
O244        C254   1.280       .  A
O245       Cu251   2.037       .  S
O245        C255   1.281       .  A
O246       Cu251   2.028       .  S
O246        C256   1.279       .  A
O247       Cu252   1.995       .  S
O247        C256   1.276       .  A
O248       Cu252   2.003       .  S
O248        C255   1.277       .  A
O249       Cu252   1.998       .  S
O249        C254   1.276       .  A
O250       Cu252   1.994       .  S
O250        C253   1.276       .  A
Cu251      Cu252   2.370       .  S
C253        C478   1.480       .  S
C254        C433   1.482       .  S
C255        C465   1.496       .  S
C256        C446   1.472       .  S
C257        C417   1.492       .  S
C257        C258   1.410       .  A
C257        C262   1.418   1_455  A
C258        C259   1.399       .  A
C258        H263   1.083       .  S
C259        C430   1.490       .  S
C259        C260   1.394   1_455  A
C260        C261   1.411       .  A
C260        H264   1.080       .  S
C261        C311   1.509       .  S
C261        C262   1.413       .  A
C262        H265   1.082       .  S
C266       C1057   1.496       .  S
C266        C267   1.421   1_455  A
C266        C271   1.413       .  A
C267        C268   1.416       .  A
C267        H272   1.082       .  S
C268        C318   1.515       .  S
C268        C269   1.408       .  A
C269        C270   1.398   1_655  A
C269        H273   1.082       .  S
C270        C462   1.500       .  S
C270        C271   1.402       .  A
C271        H274   1.080       .  S
C275        C945   1.487       .  S
C275        C276   1.405       .  A
C275        C280   1.417   1_455  A
C276        C277   1.393       .  A
C276        H281   1.084       .  S
C277        C449   1.482       .  S
C277        C278   1.395   1_455  A
C278        C279   1.415       .  A
C278        H282   1.079       .  S
C279        C327   1.517       .  S
C279        C280   1.420       .  A
C280        H283   1.081       .  S
C284        C910   1.484       .  S
C284        C285   1.414   1_455  A
C284        C289   1.406       .  A
C285        C286   1.415       .  A
C285        H290   1.081       .  S
C286        C336   1.511       .  S
C286        C287   1.411       .  A
C287        C288   1.397   1_655  A
C287        H291   1.080       .  S
C288        C481   1.484       .  S
C288        C289   1.393       .  A
C289        H292   1.083       .  S
O293       Cu301   2.033       .  S
O293        C303   1.280       .  A
O294       Cu301   2.025       .  S
O294        C304   1.279       .  A
O295       Cu301   2.028       .  S
O295        C305   1.279       .  A
O296       Cu301   2.036       .  S
O296        C306   1.280       .  A
O297       Cu302   1.991       .  S
O297        C306   1.275       .  A
O298       Cu302   2.000       .  S
O298        C305   1.277       .  A
O299       Cu302   1.998       .  S
O299        C304   1.276       .  A
O300       Cu302   2.005       .  S
O300        C303   1.277       .  A
Cu301      Cu302   2.374       .  S
C303        C366   1.481       .  S
C304        C382   1.474       .  S
C305        C353   1.483       .  S
C306        C398   1.474       .  S
C307        C833   1.490       .  S
C307        C308   1.411       .  A
C307        C312   1.417       .  A
C308        C309   1.399       .  A
C308        H313   1.083       .  S
C309        C350   1.489       .  S
C309        C310   1.395       .  A
C310        C311   1.407       .  A
C310        H314   1.082       .  S
C311        C312   1.414       .  A
C312        H315   1.081       .  S
C316        C497   1.489       .  S
C316        C317   1.421       .  A
C316        C321   1.408       .  A
C317        C318   1.419       .  A
C317        H322   1.082       .  S
C318        C319   1.414       .  A
C319        C320   1.391       .  A
C319        H323   1.079       .  S
C320        C385   1.483       .  S
C320        C321   1.392       .  A
C321        H324   1.084       .  S
C325        C993   1.488       .  S
C325        C326   1.417       .  A
C325        C330   1.407       .  A
C326        C327   1.419       .  A
C326        H331   1.081       .  S
C327        C328   1.414       .  A
C328        C329   1.396       .  A
C328        H332   1.080       .  S
C329        C369   1.487       .  S
C329        C330   1.396       .  A
C330        H333   1.084       .  S
C334       C1073   1.482       .  S
C334        C335   1.413       .  A
C334        C339   1.405       .  A
C335        C336   1.416       .  A
C335        H340   1.082       .  S
C336        C337   1.414       .  A
C337        C338   1.396       .  A
C337        H341   1.080       .  S
C338        C401   1.483       .  S
C338        C339   1.395       .  A
C339        H342   1.084       .  S
C343        N344   1.359       .  A
C343        N348   1.361       .  A
C343        C414   1.499       .  S
N344        C345   1.360       .  A
C345        N346   1.364       .  A
C345        C753   1.503       .  S
N346        C347   1.363       .  A
C347        N348   1.362       .  A
C347        C593   1.505       .  S
C349        C350   1.405       .  A
C349        C354   1.398       .  A
C349        H356   1.085       .  S
C350        C351   1.412       .  A
C351        C352   1.412       .  A
C351        C358   1.505       .  S
C352        C353   1.409       .  A
C352        H357   1.084       .  S
C353        C354   1.415       .  A
C354        C355   1.510       .  S
C355        H359   1.111       .  S
C355        H360   1.108       .  S
C355        H361   1.109       .  S
C358        H362   1.109       .  S
C358        H363   1.110       .  S
C358        H364   1.111       .  S
C365        C366   1.401       .  A
C365        C370   1.402       .  A
C365        H372   1.084       .  S
C366        C367   1.415       .  A
C367        C368   1.412       .  A
C367        C374   1.505       .  S
C368        C369   1.405       .  A
C368        H373   1.084       .  S
C369        C370   1.415       .  A
C370        C371   1.509       .  S
C371        H375   1.111       .  S
C371        H376   1.109       .  S
C371        H377   1.111       .  S
C374        H378   1.109       .  S
C374        H379   1.110       .  S
C374        H380   1.111       .  S
C381        C382   1.402       .  A
C381        C386   1.403       .  A
C381        H388   1.084       .  S
C382        C383   1.411       .  A
C383        C384   1.407       .  A
C383        C390   1.506       .  S
C384        C385   1.405       .  A
C384        H389   1.084       .  S
C385        C386   1.414       .  A
C386        C387   1.508       .  S
C387        H391   1.111       .  S
C387        H392   1.110       .  S
C387        H393   1.108       .  S
C390        H394   1.110       .  S
C390        H395   1.111       .  S
C390        H396   1.111       .  S
C397        C398   1.402       .  A
C397        C402   1.403       .  A
C397        H404   1.085       .  S
C398        C399   1.410       .  A
C399        C400   1.408       .  A
C399        C406   1.506       .  S
C400        C401   1.405       .  A
C400        H405   1.084       .  S
C401        C402   1.413       .  A
C402        C403   1.507       .  S
C403        H407   1.111       .  S
C403        H408   1.109       .  S
C403        H409   1.110       .  S
C406        H410   1.110       .  S
C406        H411   1.110       .  S
C406        H412   1.111       .  S
C413        C414   1.408       .  A
C413        C418   1.406       .  A
C413        H420   1.083       .  S
C414        C415   1.423       .  A
C415        C416   1.408       .  A
C415        C422   1.507       .  S
C416        C417   1.402       .  A
C416        H421   1.085       .  S
C417        C418   1.416       .  A
C418        C419   1.510       .  S
C419        H423   1.111       .  S
C419        H424   1.110       .  S
C419        H425   1.107       .  S
C422        H426   1.105       .  S
C422        H427   1.109       .  S
C422        H428   1.111       .  S
C429        C430   1.406       .  A
C429        C434   1.404       .  A
C429        H436   1.084       .  S
C430        C431   1.419       .  A
C431        C432   1.407       .  A
C431        C438   1.508       .  S
C432        C433   1.403       .  A
C432        H437   1.085       .  S
C433        C434   1.415       .  A
C434        C435   1.509       .  S
C435        H439   1.111   1_455  S
C435        H440   1.109   1_455  S
C435        H441   1.109       .  S
C438        H442   1.111       .  S
C438        H443   1.105       .  S
C438        H444   1.110       .  S
C445        C446   1.399       .  A
C445        C450   1.403       .  A
C445        H452   1.084       .  S
C446        C447   1.411       .  A
C447        C448   1.405       .  A
C447        C454   1.506       .  S
C448        C449   1.404       .  A
C448        H453   1.084       .  S
C449        C450   1.418       .  A
C450        C451   1.508       .  S
C451        H455   1.110       .  S
C451        H456   1.111       .  S
C451        H457   1.105       .  S
C454        H458   1.110       .  S
C454        H459   1.110       .  S
C454        H460   1.111       .  S
C461        C462   1.406       .  A
C461        C466   1.397       .  A
C461        H468   1.084   1_455  S
C462        C463   1.416       .  A
C463        C464   1.415       .  A
C463        C470   1.506       .  S
C464        C465   1.411       .  A
C464        H469   1.084       .  S
C465        C466   1.418       .  A
C466        C467   1.508   1_455  S
C467        H471   1.111       .  S
C467        H472   1.101       .  S
C467        H473   1.110       .  S
C470        H474   1.107       .  S
C470        H475   1.110       .  S
C470        H476   1.111       .  S
C477        C478   1.407       .  A
C477        C482   1.413       .  A
C477        H484   1.083       .  S
C478        C479   1.412       .  A
C479        C480   1.396       .  A
C479        C486   1.503       .  S
C480        C481   1.401       .  A
C480        H485   1.085       .  S
C481        C482   1.413       .  A
C482        C483   1.504       .  S
C483        H487   1.111       .  S
C483        H488   1.110       .  S
C483        H489   1.109       .  S
C486        H490   1.108   1_455  S
C486        H491   1.111       .  S
C486        H492   1.111   1_455  S
C493        C494   1.407       .  A
C493        C498   1.402       .  A
C493        H500   1.081       .  S
C494        C495   1.425       .  A
C495        C496   1.412       .  A
C495        C502   1.506       .  S
C496        C497   1.401       .  A
C496        H501   1.084       .  S
C497        C498   1.415       .  A
C498        C499   1.509       .  S
C499        H503   1.110       .  S
C499        H504   1.108       .  S
C499        H505   1.111       .  S
C502        H506   1.110       .  S
C502        H507   1.108       .  S
C502        H508   1.111       .  S
C509        C510   1.401       .  A
C509        C514   1.407       .  A
C509        H516   1.084       .  S
C510        C511   1.411       .  A
C511        C512   1.410       .  A
C511        C518   1.506       .  S
C512        C513   1.410       .  A
C512        H517   1.084       .  S
C513        C514   1.421       .  A
C514        C515   1.506       .  S
C515        H519   1.111       .  S
C515        H520   1.108       .  S
C515        H521   1.110       .  S
C518        H522   1.110       .  S
C518        H523   1.110       .  S
C518        H524   1.111       .  S
C525        C526   1.406       .  A
C525        C530   1.407       .  A
C525        H532   1.084       .  S
C526        C527   1.415       .  A
C527        C528   1.406       .  A
C527        C534   1.509       .  S
C528        C529   1.404       .  A
C528        H533   1.084       .  S
C529        C530   1.414       .  A
C530        C531   1.507       .  S
C531        H535   1.111       .  S
C531        H536   1.110       .  S
C531        H537   1.109       .  S
C534        H538   1.110       .  S
C534        H539   1.107       .  S
C534        H540   1.111       .  S
C541        C542   1.402       .  A
C541        C546   1.407       .  A
C541        H548   1.084       .  S
C542        C543   1.412       .  A
C543        C544   1.402       .  A
C543        C550   1.508       .  S
C544        C545   1.405       .  A
C544        H549   1.084       .  S
C545        C546   1.418       .  A
C546        C547   1.507       .  S
C547        H551   1.111       .  S
C547        H552   1.110       .  S
C547        H553   1.109       .  S
C550        H554   1.109       .  S
C550        H555   1.110       .  S
C550        H556   1.111       .  S
C557        C558   1.402       .  A
C557        C562   1.406       .  A
C557        H564   1.084       .  S
C558        C559   1.414       .  A
C559        C560   1.405       .  A
C559        C566   1.508       .  S
C560        C561   1.407       .  A
C560        H565   1.084       .  S
C561        C562   1.419       .  A
C562        C563   1.508       .  S
C563        H567   1.111       .  S
C563        H568   1.110       .  S
C563        H569   1.108       .  S
C566        H570   1.109       .  S
C566        H571   1.109       .  S
C566        H572   1.111       .  S
C573        C574   1.402       .  A
C573        C578   1.407       .  A
C573        H580   1.084       .  S
C574        C575   1.412       .  A
C575        C576   1.406       .  A
C575        C582   1.508       .  S
C576        C577   1.407       .  A
C576        H581   1.084       .  S
C577        C578   1.418       .  A
C578        C579   1.508       .  S
C579        H583   1.111       .  S
C579        H584   1.111       .  S
C579        H585   1.108       .  S
C582        H586   1.110       .  S
C582        H587   1.111       .  S
C582        H588   1.111       .  S
C589        C590   1.402       .  A
C589        C594   1.412       .  A
C589        H596   1.084       .  S
C590        C591   1.410       .  A
C591        C592   1.407       .  A
C591        C598   1.507       .  S
C592        C593   1.412       .  A
C592        H597   1.083       .  S
C593        C594   1.424       .  A
C594        C595   1.507       .  S
C595        H599   1.111       .  S
C595        H600   1.109       .  S
C595        H601   1.110       .  S
C598        H602   1.110       .  S
C598        H603   1.110       .  S
C598        H604   1.111       .  S
C605        C606   1.402       .  A
C605        C610   1.404       .  A
C605        H612   1.085       .  S
C606        C607   1.415       .  A
C607        C608   1.408       .  A
C607        C614   1.507       .  S
C608        C609   1.405       .  A
C608        H613   1.084       .  S
C609        C610   1.417       .  A
C610        C611   1.507   1_545  S
C611        H615   1.110   1_565  S
C611        H616   1.109       .  S
C611        H617   1.110       .  S
C614        H618   1.110       .  S
C614        H619   1.111       .  S
C614        H620   1.111       .  S
C621        C622   1.403       .  A
C621        C626   1.406       .  A
C621        H628   1.084       .  S
C622        C623   1.412       .  A
C623        C624   1.404       .  A
C623        C630   1.507       .  S
C624        C625   1.404       .  A
C624        H629   1.084       .  S
C625        C626   1.415       .  A
C626        C627   1.508   1_545  S
C627        H631   1.111       .  S
C627        H632   1.110   1_565  S
C627        H633   1.107       .  S
C630        H634   1.110       .  S
C630        H635   1.110       .  S
C630        H636   1.111       .  S
C637        C638   1.403       .  A
C637        C642   1.406       .  A
C637        H644   1.084       .  S
C638        C639   1.412       .  A
C639        C640   1.406       .  A
C639        C646   1.507       .  S
C640        C641   1.405       .  A
C640        H645   1.084       .  S
C641        C642   1.414       .  A
C642        C643   1.507       .  S
C643        H647   1.111       .  S
C643        H648   1.110       .  S
C643        H649   1.108   1_545  S
C646        H650   1.110       .  S
C646        H651   1.111       .  S
C646        H652   1.111       .  S
C653        C654   1.403       .  A
C653        C658   1.407       .  A
C653        H660   1.085       .  S
C654        C655   1.413       .  A
C655        C656   1.407       .  A
C655        C662   1.507       .  S
C656        C657   1.405       .  A
C656        H661   1.085       .  S
C657        C658   1.416       .  A
C658        C659   1.508       .  S
C659        H663   1.111       .  S
C659        H664   1.110       .  S
C659        H665   1.107   1_545  S
C662        H666   1.110       .  S
C662        H667   1.110       .  S
C662        H668   1.111       .  S
C669        C670   1.403       .  A
C669        C674   1.409       .  A
C669        H676   1.084       .  S
C670        C671   1.412       .  A
C671        C672   1.403       .  A
C671        C678   1.504       .  S
C672        C673   1.401       .  A
C672        H677   1.084       .  S
C673        C674   1.414       .  A
C674        C675   1.506       .  S
C675        H679   1.111       .  S
C675        H680   1.110       .  S
C675        H681   1.110       .  S
C678        H682   1.110       .  S
C678        H683   1.110       .  S
C678        H684   1.111       .  S
C685        C686   1.401       .  A
C685        C690   1.407       .  A
C685        H692   1.084       .  S
C686        C687   1.414       .  A
C687        C688   1.404       .  A
C687        C694   1.508       .  S
C688        C689   1.406       .  A
C688        H693   1.084       .  S
C689        C690   1.419       .  A
C690        C691   1.508       .  S
C691        H695   1.111       .  S
C691        H696   1.110       .  S
C691        H697   1.108       .  S
C694        H698   1.109       .  S
C694        H699   1.109       .  S
C694        H700   1.111       .  S
C701        C702   1.399       .  A
C701        C706   1.398       .  A
C701        H708   1.081       .  S
C702        C703   1.414       .  A
C703        C704   1.408       .  A
C703        C710   1.506       .  S
C704        C705   1.402       .  A
C704        H709   1.084       .  S
C705        C706   1.413       .  A
C706        C707   1.509       .  S
C707        H711   1.111       .  S
C707        H712   1.110       .  S
C707        H713   1.109       .  S
C710        H714   1.110       .  S
C710        H715   1.110       .  S
C710        H716   1.111       .  S
C717        C718   1.403       .  A
C717        C722   1.399       .  A
C717        H724   1.085       .  S
C718        C719   1.414       .  A
C719        C720   1.406       .  A
C719        C726   1.507       .  S
C720        C721   1.405       .  A
C720        H725   1.084       .  S
C721        C722   1.414       .  A
C722        C723   1.508       .  S
C723        H727   1.110       .  S
C723        H728   1.109       .  S
C723        H729   1.110       .  S
C726        H730   1.110       .  S
C726        H731   1.109       .  S
C726        H732   1.111       .  S
C733        C734   1.411       .  A
C733        C738   1.406       .  A
C733        H740   1.081       .  S
C734        C735   1.426       .  A
C735        C736   1.408       .  A
C735        C742   1.508       .  S
C736        C737   1.399       .  A
C736        H741   1.084       .  S
C737        C738   1.408       .  A
C738        C739   1.507       .  S
C739        H743   1.111       .  S
C739        H744   1.110       .  S
C739        H745   1.110       .  S
C742        H746   1.110       .  S
C742        H747   1.110       .  S
C742        H748   1.111       .  S
C749        C750   1.400       .  A
C749        C754   1.404       .  A
C749        H756   1.084       .  S
C750        C751   1.412       .  A
C751        C752   1.410       .  A
C751        C758   1.506       .  S
C752        C753   1.411       .  A
C752        H757   1.083       .  S
C753        C754   1.424       .  A
C754        C755   1.507       .  S
C755        H759   1.111       .  S
C755        H760   1.110       .  S
C755        H761   1.106       .  S
C758        H762   1.110       .  S
C758        H763   1.110   1_554  S
C758        H764   1.111       .  S
C765        C766   1.400       .  A
C765        C770   1.398       .  A
C765        H772   1.085       .  S
C766        C767   1.415       .  A
C767        C768   1.410       .  A
C767        C774   1.506       .  S
C768        C769   1.404       .  A
C768        H773   1.084       .  S
C769        C770   1.415       .  A
C770        C771   1.510   1_554  S
C771        H775   1.111       .  S
C771        H776   1.110   1_556  S
C771        H777   1.108       .  S
C774        H778   1.110       .  S
C774        H779   1.108       .  S
C774        H780   1.111       .  S
C781        C782   1.405       .  A
C781        C786   1.403       .  A
C781        H788   1.084       .  S
C782        C783   1.419       .  A
C783        C784   1.408       .  A
C783        C790   1.506       .  S
C784        C785   1.402       .  A
C784        H789   1.084       .  S
C785        C786   1.414       .  A
C786        C787   1.508       .  S
C787        H791   1.111       .  S
C787        H792   1.109   1_554  S
C787        H793   1.107       .  S
C790        H794   1.110       .  S
C790        H795   1.108       .  S
C790        H796   1.111       .  S
C797        C798   1.405       .  A
C797        C802   1.409       .  A
C797        H804   1.084       .  S
C798        C799   1.411       .  A
C799        C800   1.406       .  A
C799        C806   1.507       .  S
C800        C801   1.404       .  A
C800        H805   1.084       .  S
C801        C802   1.412       .  A
C802        C803   1.505       .  S
C803        H807   1.111       .  S
C803        H808   1.110       .  S
C803        H809   1.110       .  S
C806        H810   1.110       .  S
C806        H811   1.110       .  S
C806        H812   1.111       .  S
C813        C814   1.401       .  A
C813        C818   1.408       .  A
C813        H820   1.084       .  S
C814        C815   1.414       .  A
C815        C816   1.407       .  A
C815        C822   1.508       .  S
C816        C817   1.405       .  A
C816        H821   1.084       .  S
C817        C818   1.418       .  A
C818        C819   1.507       .  S
C819        H823   1.111       .  S
C819        H824   1.111       .  S
C819        H825   1.109       .  S
C822        H826   1.110   1_554  S
C822        H827   1.110       .  S
C822        H828   1.111       .  S
C829        C830   1.407       .  A
C829        C834   1.408       .  A
C829        H836   1.084       .  S
C830        C831   1.422       .  A
C831        C832   1.407       .  A
C831        C838   1.508       .  S
C832        C833   1.402       .  A
C832        H837   1.084       .  S
C833        C834   1.414       .  A
C834        C835   1.507       .  S
C835        H839   1.111       .  S
C835        H840   1.109       .  S
C835        H841   1.110       .  S
C838        H842   1.109       .  S
C838        H843   1.110       .  S
C838        H844   1.111       .  S
C845        C846   1.408       .  A
C845        C850   1.406       .  A
C845        H852   1.084       .  S
C846        C847   1.423       .  A
C847        C848   1.409       .  A
C847        C854   1.508       .  S
C848        C849   1.401       .  A
C848        H853   1.084       .  S
C849        C850   1.412       .  A
C850        C851   1.507       .  S
C851        H855   1.111       .  S
C851        H856   1.107       .  S
C851        H857   1.110       .  S
C854        H858   1.109       .  S
C854        H859   1.110       .  S
C854        H860   1.111       .  S
C861        C862   1.405       .  A
C861        C866   1.404       .  A
C861        H868   1.084       .  S
C862        C863   1.417       .  A
C863        C864   1.408       .  A
C863        C870   1.507       .  S
C864        C865   1.403       .  A
C864        H869   1.084       .  S
C865        C866   1.414       .  A
C866        C867   1.509       .  S
C867        H871   1.111       .  S
C867        H872   1.108       .  S
C867        H873   1.110       .  S
C870        H874   1.108       .  S
C870        H875   1.110       .  S
C870        H876   1.111       .  S
C877        C878   1.402       .  A
C877        C882   1.404       .  A
C877        H884   1.084       .  S
C878        C879   1.413       .  A
C879        C880   1.410       .  A
C879        C886   1.506       .  S
C880        C881   1.408       .  A
C880        H885   1.084       .  S
C881        C882   1.421       .  A
C882        C883   1.509       .  S
C883        H887   1.111       .  S
C883        H888   1.111       .  S
C883        H889   1.107       .  S
C886        H890   1.111       .  S
C886        H891   1.109       .  S
C886        H892   1.111       .  S
C893        C894   1.409       .  A
C893        C898   1.408       .  A
C893        H900   1.084       .  S
C894        C895   1.423       .  A
C895        C896   1.403       .  A
C895        C902   1.507       .  S
C896        C897   1.398       .  A
C896        H901   1.085       .  S
C897        C898   1.410       .  A
C898        C899   1.506       .  S
C899        H903   1.111       .  S
C899        H904   1.110       .  S
C899        H905   1.110       .  S
C902        H906   1.109       .  S
C902        H907   1.110       .  S
C902        H908   1.111       .  S
C909        C910   1.403       .  A
C909        C914   1.408       .  A
C909        H916   1.084       .  S
C910        C911   1.413       .  A
C911        C912   1.402       .  A
C911        C918   1.509       .  S
C912        C913   1.406       .  A
C912        H917   1.081       .  S
C913        C914   1.419       .  A
C914        C915   1.507       .  S
C915        H919   1.111       .  S
C915        H920   1.110       .  S
C915        H921   1.106       .  S
C918        H922   1.110       .  S
C918        H923   1.107       .  S
C918        H924   1.111       .  S
C925        C926   1.413       .  A
C925        C930   1.403       .  A
C925        H932   1.083       .  S
C926        C927   1.424       .  A
C927        C928   1.411       .  A
C927        C934   1.505       .  S
C928        C929   1.402       .  A
C928        H933   1.084       .  S
C929        C930   1.410       .  A
C930        C931   1.508       .  S
C931        H935   1.110       .  S
C931        H936   1.108       .  S
C931        H937   1.110       .  S
C934        H938   1.109       .  S
C934        H939   1.109       .  S
C934        H940   1.111       .  S
C941        C942   1.408       .  A
C941        C946   1.403       .  A
C941        H948   1.084       .  S
C942        C943   1.420       .  A
C943        C944   1.409       .  A
C943        C950   1.504       .  S
C944        C945   1.403       .  A
C944        H949   1.084       .  S
C945        C946   1.414       .  A
C946        C947   1.507       .  S
C947        H951   1.111       .  S
C947        H952   1.110       .  S
C947        H953   1.108       .  S
C950        H954   1.110       .  S
C950        H955   1.106       .  S
C950        H956   1.111       .  S
C957        C958   1.408       .  A
C957        C962   1.404       .  A
C957        H964   1.084       .  S
C958        C959   1.420       .  A
C959        C960   1.407       .  A
C959        C966   1.508       .  S
C960        C961   1.400       .  A
C960        H965   1.084       .  S
C961        C962   1.411       .  A
C962        C963   1.508       .  S
C963        H967   1.111       .  S
C963        H968   1.109       .  S
C963        H969   1.110       .  S
C966        H970   1.109       .  S
C966        H971   1.110       .  S
C966        H972   1.111       .  S
C973        C974   1.402       .  A
C973        C978   1.406       .  A
C973        H980   1.085       .  S
C974        C975   1.413       .  A
C975        C976   1.411       .  A
C975        C982   1.506       .  S
C976        C977   1.409       .  A
C976        H981   1.084       .  S
C977        C978   1.422       .  A
C978        C979   1.509       .  S
C979        H983   1.111       .  S
C979        H984   1.108       .  S
C979        H985   1.110       .  S
C982        H986   1.109       .  S
C982        H987   1.111       .  S
C982        H988   1.111       .  S
C989        C990   1.413       .  A
C989        C994   1.409       .  A
C989        H996   1.083       .  S
C990        C991   1.429       .  A
C991        C992   1.411       .  A
C991        C998   1.508       .  S
C992        C993   1.399       .  A
C992        H997   1.084       .  S
C993        C994   1.409       .  A
C994        C995   1.506       .  S
C995        H999   1.111       .  S
C995       H1000   1.110       .  S
C995       H1001   1.110       .  S
C998       H1002   1.109       .  S
C998       H1003   1.110       .  S
C998       H1004   1.111       .  S
C1005      C1006   1.403       .  A
C1005      C1010   1.411       .  A
C1005      H1012   1.084       .  S
C1006      C1007   1.414       .  A
C1007      C1008   1.406       .  A
C1007      C1014   1.508       .  S
C1008      C1009   1.407       .  A
C1008      H1013   1.083       .  S
C1009      C1010   1.421       .  A
C1010      C1011   1.508       .  S
C1011      H1015   1.111       .  S
C1011      H1016   1.107       .  S
C1011      H1017   1.110       .  S
C1014      H1018   1.108       .  S
C1014      H1019   1.110       .  S
C1014      H1020   1.111       .  S
C1021      C1022   1.407       .  A
C1021      C1026   1.403       .  A
C1021      H1028   1.082       .  S
C1022      C1023   1.418       .  A
C1023      C1024   1.410       .  A
C1023      C1030   1.504       .  S
C1024      C1025   1.402       .  A
C1024      H1029   1.084       .  S
C1025      C1026   1.413       .  A
C1026      C1027   1.509       .  S
C1027      H1031   1.111       .  S
C1027      H1032   1.108       .  S
C1027      H1033   1.110       .  S
C1030      H1034   1.107       .  S
C1030      H1035   1.110       .  S
C1030      H1036   1.111       .  S
C1037      C1038   1.410       .  A
C1037      C1042   1.409       .  A
C1037      H1044   1.084       .  S
C1038      C1039   1.426       .  A
C1039      C1040   1.406       .  A
C1039      C1046   1.508       .  S
C1040      C1041   1.399       .  A
C1040      H1045   1.085       .  S
C1041      C1042   1.414       .  A
C1042      C1043   1.507       .  S
C1043      H1047   1.110       .  S
C1043      H1048   1.110       .  S
C1043      H1049   1.108       .  S
C1046      H1050   1.110       .  S
C1046      H1051   1.110       .  S
C1046      H1052   1.111       .  S
C1053      C1054   1.404       .  A
C1053      C1058   1.404       .  A
C1053      H1060   1.085       .  S
C1054      C1055   1.421       .  A
C1055      C1056   1.411       .  A
C1055      C1062   1.505       .  S
C1056      C1057   1.405       .  A
C1056      H1061   1.084       .  S
C1057      C1058   1.420       .  A
C1058      C1059   1.510       .  S
C1059      H1063   1.111       .  S
C1059      H1064   1.106       .  S
C1059      H1065   1.110       .  S
C1062      H1066   1.106       .  S
C1062      H1067   1.110       .  S
C1062      H1068   1.111       .  S
C1069      C1070   1.412       .  A
C1069      C1074   1.403       .  A
C1069      H1076   1.083       .  S
C1070      C1071   1.423       .  A
C1071      C1072   1.410       .  A
C1071      C1078   1.508       .  S
C1072      C1073   1.401       .  A
C1072      H1077   1.084       .  S
C1073      C1074   1.407       .  A
C1074      C1075   1.507       .  S
C1075      H1079   1.111       .  S
C1075      H1080   1.110       .  S
C1075      H1081   1.110       .  S
C1078      H1082   1.110       .  S
C1078      H1083   1.109       .  S
C1078      H1084   1.111       .  S
C1085      C1086   1.409       .  A
C1085      C1090   1.409       .  A
C1085      H1092   1.084       .  S
C1086      C1087   1.422       .  A
C1087      C1088   1.409       .  A
C1087      C1094   1.508       .  S
C1088      C1089   1.403       .  A
C1088      H1093   1.084       .  S
C1089      C1090   1.411       .  A
C1090      C1091   1.506       .  S
C1091      H1095   1.111       .  S
C1091      H1096   1.110       .  S
C1091      H1097   1.110       .  S
C1094      H1098   1.109       .  S
C1094      H1099   1.110       .  S
C1094      H1100   1.111       .  S
C1101      C1102   1.404       .  A
C1101      C1106   1.410       .  A
C1101      H1108   1.084       .  S
C1102      C1103   1.414       .  A
C1103      C1104   1.401       .  A
C1103      C1110   1.508       .  S
C1104      C1105   1.406       .  A
C1104      H1109   1.085       .  S
C1105      C1106   1.417       .  A
C1106      C1107   1.506       .  S
C1107      H1111   1.111       .  S
C1107      H1112   1.108       .  S
C1107      H1113   1.110       .  S
C1110      H1114   1.110       .  S
C1110      H1115   1.108       .  S
C1110      H1116   1.110       .  S
