geometry optimzed in LAMMPS
_audit_creation_date              2020-11-30 
_audit_creation_method            'lammps2cif' 
_symmetry_space_group_name_H-M    'P1' 
_symmetry_Int_Tables_number       1 
_symmetry_cell_setting            triclinic 
loop_ 
_symmetry_equiv_pos_as_xyz 
  x,y,z 
_cell_length_a                    44.48884145612026 
_cell_length_b                    23.04665697971946 
_cell_length_c                    23.761921775834004 
_cell_angle_alpha                 89.99250709325757 
_cell_angle_beta                  89.99172353290966 
_cell_angle_gamma                 89.98336806132731 
loop_ 
_atom_site_label 
_atom_site_type_symbol 
_atom_site_fract_x 
_atom_site_fract_y 
_atom_site_fract_z 
_atom_site_charge 
O1          O  0.56789121  0.45195194  0.96098788    -0.68780
O2          O  0.65680301  0.45540789  0.96494150    -0.69770
O3          O  0.60960766  0.39734491  0.02763871    -0.58380
O4          O  0.61010823  0.51001858  0.89843798    -0.66800
O5          O  0.60841990  0.58376215  0.95867355    -0.66350
O6          O  0.60845577  0.47111670  0.08788923    -0.57600
O7          O  0.65542407  0.52929119  0.02499624    -0.70110
O8          O  0.56644572  0.52563056  0.02187204    -0.68890
Cu9        Cu  0.61182025  0.45110678  0.96089902     1.04560
Cu10       Cu  0.61029572  0.53008858  0.02552109     1.04330
C11         C  0.55355144  0.48825325  0.99089862     0.97410
C12         C  0.67020378  0.49285837  0.99549086     0.96550
C13         C  0.60478831  0.41728482  0.07699937     0.88700
C14         C  0.60506556  0.56351466  0.90901264     0.94970
O15         O  0.45045978  0.45165132  0.96076381    -0.68780
O16         O  0.36154553  0.45491598  0.96395538    -0.69770
O17         O  0.40835218  0.50961028  0.89786110    -0.58380
O18         O  0.40861663  0.39699329  0.02709357    -0.66800
O19         O  0.40953753  0.47080274  0.08731659    -0.66350
O20         O  0.40981046  0.58337074  0.95810023    -0.57600
O21         O  0.36270035  0.52882554  0.02399717    -0.70110
O22         O  0.45168818  0.52535383  0.02163531    -0.68890
Cu23       Cu  0.40653532  0.45071155  0.96031152     1.04560
Cu24       Cu  0.40781973  0.52972249  0.02492134     1.04330
C25         C  0.46469279  0.48801379  0.99075484     0.97410
C26         C  0.34803334  0.49235267  0.99436996     0.96550
C27         C  0.41329755  0.56312613  0.90847189     0.88700
C28         C  0.41327511  0.41697567  0.07648798     0.94970
C29         C  0.46288913  0.64781149  0.78757114     0.01670
C30         C  0.46259907  0.32636676  0.19386478     0.01670
N31         N  0.41595929  0.43600792  0.41853590    -0.23130
N32         N  0.38999084  0.42032995  0.39603215    -0.30990
C33         C  0.39529935  0.39179434  0.34769605     0.05210
C34         C  0.42597314  0.38937842  0.33968896     0.11230
C35         C  0.43849234  0.41784697  0.38505014    -0.01860
H36         H  0.37804919  0.37480504  0.32009311     0.11900
H37         H  0.46210520  0.42550409  0.39283332     0.13100
Cu38       Cu  0.34828953  0.43904760  0.43067842     0.44170
Cu39       Cu  0.41955987  0.48227377  0.49304056     0.41990
Cu40       Cu  0.34831833  0.51744004  0.56077711     0.43880
N41         N  0.30922397  0.46248069  0.47252773    -0.30520
N42         N  0.30922255  0.49129075  0.52064254    -0.24770
C43         C  0.28063025  0.50040073  0.53691581    -0.00870
C44         C  0.26192929  0.47609090  0.49704639     0.11340
C45         C  0.28063786  0.45245140  0.45680256     0.05140
H46         H  0.27400583  0.52334056  0.57475256     0.12790
H47         H  0.27401993  0.42991586  0.41874007     0.11870
N48         N  0.39009858  0.54053315  0.59239458    -0.31970
N49         N  0.41601693  0.52795487  0.56789468    -0.24150
C50         C  0.43862624  0.54887205  0.59961140     0.00610
C51         C  0.42619851  0.57583517  0.64591751     0.09220
C52         C  0.39551748  0.56976071  0.64028187     0.07320
H53         H  0.46224017  0.54424229  0.58991206     0.12420
H54         H  0.37837583  0.58492209  0.66905334     0.11260
C55         C  0.46265195  0.82637384  0.78198139     0.01670
C56         C  0.46253984  0.14778528  0.18825850     0.01670
N57         N  0.41557867  0.02998317  0.40896315    -0.23130
N58         N  0.38964056  0.04340382  0.38497857    -0.30990
C59         C  0.39504075  0.07247445  0.33698216     0.05210
C60         C  0.42573707  0.07757072  0.33073300     0.11230
C61         C  0.43818593  0.05018627  0.37679150    -0.01860
H62         H  0.37787230  0.08814929  0.30853170     0.11900
H63         H  0.46181363  0.04476283  0.38600176     0.13100
Cu64       Cu  0.34787708  0.02145688  0.41738394     0.44170
Cu65       Cu  0.41912951  0.98411161  0.48374134     0.41990
Cu66       Cu  0.34797348  0.94296848  0.54765916     0.43880
N67         N  0.30885981  0.99586634  0.45808179    -0.30520
N68         N  0.30890630  0.96705517  0.50620771    -0.24770
C69         C  0.28033779  0.95712318  0.52209496    -0.00870
C70         C  0.26160451  0.98084103  0.48195835     0.11340
C71         C  0.28025677  0.00507259  0.44196533     0.05140
H72         H  0.27375100  0.93441805  0.56009790     0.12790
H73         H  0.27359834  0.02783653  0.40406554     0.11870
N74         N  0.38971151  0.92310654  0.58151324    -0.31970
N75         N  0.41565323  0.93799506  0.55839182    -0.24150
C76         C  0.43825400  0.91916136  0.59135896     0.00610
C77         C  0.42580966  0.89108478  0.63703903     0.09220
C78         C  0.39510399  0.89442214  0.62974496     0.07320
H79         H  0.46187563  0.92607446  0.58299465     0.12420
H80         H  0.37790519  0.87792165  0.65772669     0.11260
O81         O  0.56714249  0.95057253  0.01562573    -0.68780
O82         O  0.65611566  0.95131799  0.01507258    -0.69770
O83         O  0.60914247  0.00738765  0.07987223    -0.58380
O84         O  0.60911278  0.89476493  0.95062656    -0.66800
O85         O  0.60921314  0.96861212  0.89039922    -0.66350
O86         O  0.60870287  0.08115820  0.01957676    -0.57600
O87         O  0.65595450  0.02524948  0.95500456    -0.70110
O88         O  0.56692560  0.02429798  0.95472212    -0.68890
Cu89       Cu  0.61105239  0.94842139  0.01745054     1.04560
Cu90       Cu  0.61085306  0.02745611  0.95281023     1.04330
C91         C  0.55340852  0.98719606  0.98508166     0.97410
C92         C  0.67013360  0.98830304  0.98494142     0.96550
C93         C  0.60470134  0.06105294  0.06912611     0.88700
C94         C  0.60493124  0.91492323  0.90114140     0.94970
O95         O  0.45062451  0.95056103  0.01475068    -0.68780
O96         O  0.36163718  0.95223213  0.01340608    -0.69770
O97         O  0.40864087  0.89514039  0.94943920    -0.58380
O98         O  0.40860419  0.00781742  0.07863725    -0.66800
O99         O  0.40938997  0.08156680  0.01833510    -0.66350
O100        O  0.40889126  0.96895504  0.88917344    -0.57600
O101        O  0.36216173  0.02613631  0.95331220    -0.70110
O102        O  0.45115677  0.02426305  0.95382753    -0.68890
Cu103      Cu  0.40669195  0.94885147  0.01620457     1.04560
Cu104      Cu  0.40725900  0.02785779  0.95153968     1.04330
C105        C  0.46451567  0.98710026  0.98436259     0.97410
C106        C  0.34780336  0.98933297  0.98309518     0.96550
C107        C  0.41296561  0.91521261  0.89996812     0.88700
C108        C  0.41322801  0.06142870  0.06792218     0.94970
C109        C  0.55531875  0.82658961  0.78265939     0.01670
C110        C  0.55522179  0.14794986  0.18882173     0.01670
N111        N  0.60211351  0.93952088  0.55965197    -0.23130
N112        N  0.62809456  0.92507774  0.58288607    -0.30990
C113        C  0.62278572  0.89620838  0.63103159     0.05210
C114        C  0.59209595  0.89228160  0.63814850     0.11230
C115        C  0.57956302  0.92020248  0.59246722    -0.01860
H116        H  0.64002437  0.87996238  0.65905310     0.11900
H117        H  0.55592389  0.92665715  0.58399002     0.13100
Cu118      Cu  0.66977976  0.94562918  0.54932629     0.44170
Cu119      Cu  0.59852183  0.98561145  0.48503417     0.41990
Cu120      Cu  0.66979526  0.02404944  0.41917010     0.43880
N121        N  0.70883333  0.97009615  0.50813866    -0.30520
N122        N  0.70887025  0.99890626  0.46001635    -0.24770
C123        C  0.73747733  0.00825563  0.44398607    -0.00870
C124        C  0.75613452  0.98412557  0.48404613     0.11340
C125        C  0.73739922  0.96030484  0.52411585     0.05140
H126        H  0.74413729  0.03096778  0.40604875     0.12790
H127        H  0.74398102  0.93754509  0.56208418     0.11870
N128        N  0.62797742  0.04529612  0.38647311    -0.31970
N129        N  0.60204689  0.03146802  0.41027058    -0.24150
C130        C  0.57941565  0.05120322  0.37788462     0.00610
C131        C  0.59183615  0.07871227  0.33187683     0.09220
C132        C  0.62254241  0.07417478  0.33838039     0.07320
H133        H  0.55579304  0.04534975  0.38690338     0.12420
H134        H  0.63970374  0.09007326  0.31000741     0.11260
C135        C  0.55552832  0.64801697  0.78783670     0.01670
C136        C  0.55530279  0.32654951  0.19407884     0.01670
N137        N  0.60231577  0.52876592  0.56769640    -0.23130
N138        N  0.62826680  0.54138815  0.59201951    -0.30990
C139        C  0.62291728  0.57053397  0.63998741     0.05210
C140        C  0.59224249  0.57651326  0.64587185     0.11230
C141        C  0.57974916  0.54957629  0.59961848    -0.01860
H142        H  0.64010241  0.58567647  0.66865906     0.11900
H143        H  0.55611890  0.54486936  0.59010809     0.13100
Cu144      Cu  0.66998647  0.51834998  0.56008731     0.44170
Cu145      Cu  0.59871139  0.48309129  0.49282572     0.41990
Cu146      Cu  0.66993001  0.43994842  0.42992502     0.43880
N147        N  0.70904027  0.49211595  0.51985804    -0.30520
N148        N  0.70902934  0.46331651  0.47173498    -0.24770
C149        C  0.73761854  0.45312764  0.45606780    -0.00870
C150        C  0.75632824  0.47664851  0.49636437     0.11340
C151        C  0.73762933  0.50105684  0.53619132     0.05140
H152        H  0.74423857  0.43050961  0.41804338     0.12790
H153        H  0.74425258  0.52389655  0.57407471     0.11870
N154        N  0.62815207  0.42114435  0.39558913    -0.31970
N155        N  0.60221744  0.43677964  0.41829849    -0.24150
C156        C  0.57962442  0.41849423  0.38503699     0.00610
C157        C  0.59206007  0.38998444  0.33960083     0.09220
C158        C  0.62275454  0.39251242  0.34733832     0.07320
H159        H  0.55602224  0.42606945  0.39303601     0.12420
H160        H  0.63995499  0.37550208  0.31962418     0.11260
O161        O  0.15544058  0.44163011  0.52429549    -0.68780
O162        O  0.06644003  0.44562459  0.52090518    -0.69770
O163        O  0.10845350  0.38734343  0.45783336    -0.58380
O164        O  0.10844599  0.49989931  0.58704982    -0.66800
O165        O  0.10966914  0.57371637  0.52683943    -0.66350
O166        O  0.11021157  0.46109591  0.39759901    -0.57600
O167        O  0.06796208  0.51932755  0.46004641    -0.70110
O168        O  0.15690497  0.51553596  0.46426323    -0.68890
Cu169      Cu  0.11029999  0.44098165  0.52467385     1.04560
Cu170      Cu  0.11191012  0.51998866  0.46007729     1.04330
C171        C  0.17026755  0.47805462  0.49486954     0.97410
C172        C  0.05357778  0.48310163  0.48996455     0.96550
C173        C  0.10514486  0.40760717  0.40816541     0.88700
C174        C  0.10479572  0.55374233  0.57617425     0.94970
O175        O  0.86278784  0.44184455  0.52441305    -0.68780
O176        O  0.95181861  0.44604835  0.52155727    -0.69770
O177        O  0.90959313  0.50016362  0.58748835    -0.58380
O178        O  0.90997131  0.38767597  0.45827621    -0.66800
O179        O  0.90826160  0.46142976  0.39803583    -0.66350
O180        O  0.90841901  0.57400986  0.52730154    -0.57600
O181        O  0.95030922  0.51976225  0.46070879    -0.70110
O182        O  0.86139087  0.51576486  0.46438982    -0.68890
Cu183      Cu  0.90793843  0.44129374  0.52509493     1.04560
Cu184      Cu  0.90637501  0.52031644  0.46050745     1.04330
C185        C  0.84799427  0.47824725  0.49488390     0.97410
C186        C  0.96468756  0.48349182  0.49058744     0.96550
C187        C  0.91319145  0.55402057  0.57666315     0.88700
C188        C  0.91336057  0.40795210  0.40863412     0.94970
C189        C  0.96258679  0.64448822  0.69390549     0.01670
C190        C  0.96292864  0.32325203  0.28761008     0.01670
N191        N  0.91582219  0.53474276  0.91847914    -0.23130
N192        N  0.88987431  0.55046696  0.89589643    -0.30990
C193        C  0.89523280  0.57898197  0.84755835     0.05210
C194        C  0.92591768  0.58133143  0.83963757     0.11230
C195        C  0.93838734  0.55284964  0.88505161    -0.01860
H196        H  0.87801433  0.59600883  0.81990654     0.11900
H197        H  0.96199180  0.54515325  0.89291608     0.13100
Cu198      Cu  0.84814221  0.53183638  0.93048409     0.44170
Cu199      Cu  0.91938286  0.48849117  0.99301554     0.41990
Cu200      Cu  0.84822018  0.45338057  0.06069704     0.43880
N201        N  0.80910850  0.50839810  0.97244902    -0.30520
N202        N  0.80914515  0.47958397  0.02057165    -0.24770
C203        C  0.78057345  0.47048870  0.03693408    -0.00870
C204        C  0.76184160  0.49480754  0.99712265     0.11340
C205        C  0.78050634  0.51844368  0.95681010     0.05140
H206        H  0.77398563  0.44755932  0.07479929     0.12790
H207        H  0.77384953  0.54099017  0.91877470     0.11870
N208        N  0.88996544  0.43023220  0.09237796    -0.31970
N209        N  0.91588003  0.44280465  0.06788268    -0.24150
C210        C  0.93849003  0.42189097  0.09961738     0.00610
C211        C  0.92606241  0.39493467  0.14592804     0.09220
C212        C  0.89538115  0.40101203  0.14027990     0.07320
H213        H  0.96210724  0.42652737  0.08993199     0.12420
H214        H  0.87823879  0.38587079  0.16905442     0.11260
C215        C  0.96247841  0.82307912  0.68868533     0.01670
C216        C  0.96281265  0.14466921  0.28255381     0.01670
N217        N  0.91587971  0.93943210  0.91044137    -0.23130
N218        N  0.88992180  0.92561147  0.88675761    -0.30990
C219        C  0.89530601  0.89676530  0.83862637     0.05210
C220        C  0.92600658  0.89223838  0.83196777     0.11230
C221        C  0.93847554  0.91972253  0.87793789    -0.01860
H222        H  0.87811275  0.88089758  0.81031884     0.11900
H223        H  0.96210632  0.92559083  0.88684189     0.13100
Cu224      Cu  0.84812373  0.94689627  0.91960759     0.44170
Cu225      Cu  0.91948310  0.98530411  0.98519399     0.41990
Cu226      Cu  0.84823207  0.02537111  0.04964966     0.43880
N227        N  0.80905653  0.97222785  0.96044160    -0.30520
N228        N  0.80912617  0.00106824  0.00853874    -0.24770
C229        C  0.78056867  0.01107950  0.02447452    -0.00870
C230        C  0.76179982  0.98737924  0.98439846     0.11340
C231        C  0.78043629  0.96307963  0.94438816     0.05140
H232        H  0.77401385  0.03393652  0.06240780     0.12790
H233        H  0.77375080  0.94041278  0.90644755     0.11870
N234        N  0.88995131  0.04593611  0.08306062    -0.31970
N235        N  0.91592279  0.03147880  0.05978139    -0.24150
C236        C  0.93848782  0.05087632  0.09250749     0.00610
C237        C  0.92597430  0.07886524  0.13817262     0.09220
C238        C  0.89528248  0.07489057  0.13113974     0.07320
H239        H  0.96212327  0.04444053  0.08397770     0.12420
H240        H  0.87805343  0.09117794  0.15917507     0.11260
O241        O  0.15565908  0.94433801  0.45291546    -0.68780
O242        O  0.06668466  0.94630720  0.45301919    -0.69770
O243        O  0.10905514  0.00160797  0.38853515    -0.58380
O244        O  0.10833606  0.88898137  0.51771346    -0.66800
O245        O  0.10908272  0.96274253  0.57799060    -0.66350
O246        O  0.10926665  0.07540054  0.44881105    -0.57600
O247        O  0.06718116  0.02000491  0.51393692    -0.70110
O248        O  0.15612247  0.01823862  0.51300464    -0.68890
Cu249      Cu  0.11057567  0.94268063  0.45091267     1.04560
Cu250      Cu  0.11109181  0.02168476  0.51557306     1.04330
C251        C  0.16998041  0.98108885  0.48280178     0.97410
C252        C  0.05331388  0.98344718  0.48355632     0.96550
C253        C  0.10501025  0.05536020  0.39931804     0.88700
C254        C  0.10446190  0.90913763  0.56728127     0.94970
O255        O  0.86188501  0.94632172  0.45482862    -0.68780
O256        O  0.95085714  0.94648523  0.45455195    -0.69770
O257        O  0.90897473  0.88997699  0.51944541    -0.58380
O258        O  0.90875731  0.00266225  0.39026816    -0.66800
O259        O  0.90899263  0.07644131  0.45055047    -0.66350
O260        O  0.90867474  0.96372887  0.57974488    -0.57600
O261        O  0.95081794  0.02017558  0.51548548    -0.70110
O262        O  0.86184839  0.02021220  0.51493153    -0.68890
Cu263      Cu  0.90695660  0.94373994  0.45265944     1.04560
Cu264      Cu  0.90691572  0.02273182  0.51733389     1.04330
C265        C  0.84777335  0.98335032  0.48476700     0.97410
C266        C  0.96445674  0.98346475  0.48488850     0.96550
C267        C  0.91301359  0.91003664  0.56900017     0.88700
C268        C  0.91314353  0.05631497  0.40104843     0.94970
C269        C  0.05529063  0.64437077  0.69333663     0.01670
C270        C  0.05558410  0.32316283  0.28706721     0.01670
N271        N  0.10241425  0.44239338  0.06692353    -0.23130
N272        N  0.12834622  0.42970740  0.09129797    -0.30990
C273        C  0.12295950  0.40060310  0.13928026     0.05210
C274        C  0.09227648  0.39472306  0.14511796     0.11230
C275        C  0.07982128  0.42167039  0.09882042    -0.01860
H276        H  0.14012057  0.38542253  0.16798514     0.11900
H277        H  0.05619750  0.42644212  0.08926084     0.13100
Cu278      Cu  0.17007064  0.45263875  0.05936656     0.44170
Cu279      Cu  0.09888093  0.48804430  0.99202466     0.41990
Cu280      Cu  0.17007502  0.53112710  0.92912852     0.43880
N281        N  0.20911436  0.47878015  0.01909559    -0.30520
N282        N  0.20912486  0.50759996  0.97097514    -0.24770
C283        C  0.23771742  0.51766532  0.95529194    -0.00870
C284        C  0.25640140  0.49403309  0.99557355     0.11340
C285        C  0.23769394  0.46970174  0.03541194     0.05140
H286        H  0.24435365  0.54026039  0.91726847     0.12790
H287        H  0.24430330  0.44681379  0.07328421     0.11870
N288        N  0.12831747  0.54996516  0.89477820    -0.31970
N289        N  0.10238736  0.53434100  0.91749268    -0.24150
C290        C  0.07979289  0.55262009  0.88422324     0.00610
C291        C  0.09222489  0.58111134  0.83878065     0.09220
C292        C  0.12291841  0.57858360  0.84651289     0.07320
H293        H  0.05618887  0.54504510  0.89221999     0.12420
H294        H  0.14011561  0.59557401  0.81878712     0.11260
C295        C  0.05514936  0.82294850  0.68771821     0.01670
C296        C  0.05546817  0.14459799  0.28144545     0.01670
N297        N  0.10203213  0.03287409  0.05760227    -0.23130
N298        N  0.12800117  0.04765150  0.08066295    -0.30990
C299        C  0.12266791  0.07635165  0.12889721     0.05210
C300        C  0.09197355  0.07981904  0.13626360     0.11230
C301        C  0.07946824  0.05179878  0.09061990    -0.01860
H302        H  0.13990129  0.09276258  0.15684208     0.11900
H303        H  0.05583779  0.04497631  0.08232308     0.13100
Cu304      Cu  0.16970898  0.02761146  0.04678942     0.44170
Cu305      Cu  0.09850515  0.98676268  0.98298457     0.41990
Cu306      Cu  0.16985884  0.94916965  0.91669056     0.43880
N307        N  0.20881737  0.00342387  0.00553299    -0.30520
N308        N  0.20890257  0.97460204  0.95742481    -0.24770
C309        C  0.23752614  0.96529855  0.94144268    -0.01030
C310        C  0.25614894  0.98948139  0.98151702     0.11340
C311        C  0.23737048  0.01326816  0.02154672     0.05140
H312        H  0.24421994  0.94249848  0.90358203     0.12790
H313        H  0.24391840  0.03596244  0.05957497     0.11870
N314        N  0.12806016  0.92735923  0.88432177    -0.31970
N315        N  0.10211482  0.94085373  0.90826144    -0.24150
C316        C  0.07951159  0.92066671  0.87609032     0.00610
C317        C  0.09196868  0.89321672  0.83008415     0.09220
C318        C  0.12266287  0.89825546  0.83635536     0.07320
H319        H  0.05588420  0.92613705  0.88527074     0.12420
H320        H  0.13983759  0.88250512  0.80793726     0.11260
C321        C  0.07656494  0.10434208  0.18379745    -0.09110
C322        C  0.06559998  0.12357636  0.22634590    -0.10670
C323        C  0.06542789  0.84655222  0.74166784    -0.09110
C324        C  0.07646782  0.86732308  0.78341895    -0.10670
C325        C  0.05964266  0.26002677  0.28591012    -0.09110
C326        C  0.05958766  0.20766849  0.28409713    -0.10670
C327        C  0.07676614  0.36847974  0.19162512    -0.09110
C328        C  0.06574989  0.34734845  0.23325217    -0.10670
C329        C  0.05938964  0.70743504  0.68998272    -0.09110
C330        C  0.05933362  0.75980800  0.68818168    -0.10670
C331        C  0.06566036  0.62398669  0.74849951    -0.09110
C332        C  0.07676042  0.60519076  0.79110462    -0.10670
C333        C  0.09082557  0.09156753  0.35745395    -0.09110
C334        C  0.07443989  0.11664885  0.32467305    -0.10670
C335        C  0.09020606  0.87334350  0.60948362    -0.09110
C336        C  0.07392994  0.84901739  0.64303257    -0.10670
C337        C  0.02212290  0.98394399  0.48392072    -0.09110
C338        C  0.99564724  0.98386849  0.48444528    -0.10670
C339        C  0.99544940  0.13240929  0.28917865    -0.09110
C340        C  0.02286653  0.13241097  0.28875461    -0.10670
C341        C  0.94139118  0.10388409  0.18541027    -0.09110
C342        C  0.95242470  0.12345224  0.22772661    -0.10670
C343        C  0.94399329  0.11697163  0.32620911    -0.09110
C344        C  0.92755754  0.09220285  0.35915314    -0.10670
C345        C  0.99508685  0.83479858  0.68084934    -0.09110
C346        C  0.02250211  0.83471208  0.68050170    -0.10670
C347        C  0.95243898  0.84644620  0.74293174    -0.09110
C348        C  0.94148253  0.86686180  0.78495531    -0.10670
C349        C  0.94349389  0.84935929  0.64440494    -0.09110
C350        C  0.92718545  0.87396097  0.61109065    -0.10670
C351        C  0.02297795  0.33497395  0.29488909    -0.09110
C352        C  0.99556083  0.33498757  0.29507886    -0.10670
C353        C  0.95880684  0.26013267  0.28666233    -0.09110
C354        C  0.95877018  0.20776897  0.28502109    -0.10670
C355        C  0.94160302  0.36852171  0.19229094    -0.09110
C356        C  0.95266709  0.34733256  0.23383454    -0.10670
C357        C  0.99521891  0.63225339  0.68700294    -0.09110
C358        C  0.02264007  0.63216811  0.68680498    -0.10670
C359        C  0.95842106  0.70755184  0.69069508    -0.09110
C360        C  0.95834474  0.75992928  0.68899157    -0.10670
C361        C  0.94133142  0.60525343  0.79182641    -0.09110
C362        C  0.95235303  0.62399950  0.74912645    -0.10670
C363        C  0.92768921  0.37260150  0.36618014    -0.09110
C364        C  0.94406367  0.34878020  0.33245923    -0.10670
C365        C  0.94372158  0.61603077  0.65082797    -0.09110
C366        C  0.92738904  0.59054249  0.61825644    -0.10670
C367        C  0.09091265  0.37224256  0.36562645    -0.09110
C368        C  0.07454947  0.34849197  0.33185854    -0.10670
C369        C  0.07408686  0.61581174  0.65016058    -0.09110
C370        C  0.09045551  0.59026531  0.61765132    -0.10670
C371        C  0.02237720  0.48455376  0.48897734    -0.09110
C372        C  0.99588790  0.48469532  0.48927518    -0.10670
C373        C  0.78864083  0.47665287  0.49632008    -0.09110
C374        C  0.81574667  0.47707075  0.49591892    -0.10670
C375        C  0.56555840  0.34701016  0.24929832    -0.09110
C376        C  0.57660589  0.36586402  0.29192793    -0.10670
C377        C  0.57677370  0.60280794  0.69239793    -0.09110
C378        C  0.56576753  0.62393201  0.73403500    -0.10670
C379        C  0.78843239  0.98389291  0.48414567    -0.09110
C380        C  0.81553053  0.98361209  0.48443279    -0.10670
C381        C  0.55940556  0.21109707  0.18908329    -0.09110
C382        C  0.55944774  0.26347813  0.19080473    -0.10670
C383        C  0.56530829  0.12459086  0.24302038    -0.09110
C384        C  0.57630873  0.10414448  0.28497640    -0.10670
C385        C  0.55944282  0.76351408  0.78511033    -0.09110
C386        C  0.55953891  0.71115499  0.78679060    -0.10670
C387        C  0.57669390  0.86736823  0.68546355    -0.09110
C388        C  0.56566945  0.84784949  0.72781730    -0.10670
C389        C  0.31555497  0.98955386  0.98238550    -0.09110
C390        C  0.28845352  0.98953121  0.98182515    -0.10670
C391        C  0.70238758  0.98821971  0.98463700    -0.09110
C392        C  0.72949208  0.98786688  0.98442784    -0.10670
C393        C  0.57416278  0.12163185  0.14451183    -0.09110
C394        C  0.59047854  0.09704129  0.11120990    -0.10670
C395        C  0.59056855  0.87902621  0.85922909    -0.09110
C396        C  0.57413864  0.85429257  0.82627625    -0.10670
C397        C  0.49571968  0.98650739  0.98460832    -0.09110
C398        C  0.52220436  0.98661807  0.98483716    -0.10670
C399        C  0.20221640  0.98074107  0.48236812    -0.09110
C400        C  0.22931154  0.98072026  0.48207021    -0.10670
C401        C  0.52260557  0.13618482  0.18114129    -0.09110
C402        C  0.49518894  0.13609115  0.18093693    -0.10670
C403        C  0.44124914  0.10344076  0.28403816    -0.09110
C404        C  0.45229271  0.12419333  0.24226138    -0.10670
C405        C  0.42745916  0.09726211  0.11013042    -0.09110
C406        C  0.44373124  0.12167090  0.14363024    -0.10670
C407        C  0.49525247  0.83872358  0.78909348    -0.09110
C408        C  0.52267265  0.83876084  0.78938061    -0.10670
C409        C  0.45237978  0.84738672  0.72696293    -0.09110
C410        C  0.44129620  0.86659358  0.68450680    -0.10670
C411        C  0.44368961  0.85414394  0.82534674    -0.09110
C412        C  0.42725550  0.87908382  0.85815481    -0.10670
C413        C  0.20251355  0.47691497  0.49616455    -0.09110
C414        C  0.22961752  0.47637522  0.49681879    -0.10670
C415        C  0.49523964  0.33859294  0.18719142    -0.09110
C416        C  0.52265986  0.33869819  0.18727749    -0.10670
C417        C  0.45838357  0.21093561  0.18870783    -0.09110
C418        C  0.45844337  0.26331053  0.19051407    -0.10670
C419        C  0.45231153  0.34673371  0.24908232    -0.09110
C420        C  0.44132589  0.36544681  0.29182252    -0.10670
C421        C  0.49550531  0.63612245  0.79535468    -0.09110
C422        C  0.52292050  0.63615587  0.79544728    -0.10670
C423        C  0.45873260  0.71091994  0.78640564    -0.09110
C424        C  0.45865868  0.76327660  0.78460817    -0.10670
C425        C  0.45274972  0.62356451  0.73379160    -0.09110
C426        C  0.44173352  0.60229252  0.69225199    -0.10670
C427        C  0.31579737  0.49340280  0.99519951    -0.09110
C428        C  0.28869992  0.49387852  0.99552420    -0.10670
C429        C  0.44378790  0.35495826  0.15075295    -0.09110
C430        C  0.42748079  0.38048986  0.11813962    -0.10670
C431        C  0.44395523  0.62239823  0.83236010    -0.09110
C432        C  0.42757712  0.59857473  0.86605707    -0.10670
C433        C  0.70244076  0.49398617  0.99658916    -0.09110
C434        C  0.72953951  0.49454116  0.99704710    -0.10670
C435        C  0.59049521  0.38072638  0.11849963    -0.09110
C436        C  0.57414420  0.35511870  0.15098601    -0.10670
C437        C  0.57445415  0.62264632  0.83268781    -0.09110
C438        C  0.59081347  0.59890351  0.86648909    -0.10670
C439        C  0.49588338  0.48696578  0.98976109    -0.09110
C440        C  0.52236450  0.48704623  0.98977389    -0.10670
loop_ 
_geom_bond_atom_site_label_1 
_geom_bond_atom_site_label_2 
_geom_bond_distance 
_geom_bond_site_symmetry_2 
_ccdc_geom_bond_type 
O1           Cu9   1.954       .  S
O1           C11   1.270       .  A
O2           Cu9   2.006       .  S
O2           C12   1.276       .  A
O3           Cu9   2.015   1_554  S
O3           C13   1.278       .  A
O4           Cu9   2.013       .  S
O4           C14   1.278       .  A
O5          Cu10   2.015   1_556  S
O5           C14   1.278       .  A
O6          Cu10   2.012       .  S
O6           C13   1.278       .  A
O7          Cu10   2.008       .  S
O7           C12   1.276   1_554  A
O8          Cu10   1.956       .  S
O8           C11   1.270   1_554  A
Cu9         Cu10   2.383   1_556  S
C11         C440   1.388       .  S
C12         C433   1.435       .  S
C13         C435   1.445       .  S
C14         C438   1.445       .  S
O15         Cu23   1.954       .  S
O15          C25   1.270       .  A
O16         Cu23   2.006       .  S
O16          C26   1.276       .  A
O17         Cu23   2.013       .  S
O17          C27   1.278       .  A
O18         Cu23   2.015   1_554  S
O18          C28   1.278       .  A
O19         Cu24   2.012       .  S
O19          C28   1.278       .  A
O20         Cu24   2.014   1_556  S
O20          C27   1.278       .  A
O21         Cu24   2.008       .  S
O21          C26   1.276   1_554  A
O22         Cu24   1.956       .  S
O22          C25   1.270   1_554  A
Cu23        Cu24   2.383   1_556  S
C25         C439   1.388       .  S
C26         C427   1.434       .  S
C27         C432   1.445       .  S
C28         C430   1.444       .  S
C29         C421   1.487       .  S
C29         C423   1.466       .  S
C29         C425   1.466       .  S
C29         C431   1.478       .  S
C30         C415   1.488       .  S
C30         C418   1.467       .  S
C30         C419   1.467       .  S
C30         C429   1.478       .  S
N31          N32   1.324       .  A
N31          C35   1.346       .  A
N31         Cu39   2.073       .  S
N32          C33   1.344       .  A
N32         Cu38   2.075       .  S
C33          C34   1.379       .  A
C33          H36   1.083       .  S
C34         C420   1.437       .  S
C34          C35   1.380       .  A
C35          H37   1.081       .  S
Cu38         N41   2.074       .  S
Cu39         N49   2.073       .  S
Cu40         N42   2.073       .  S
Cu40         N48   2.075       .  S
N41          N42   1.322       .  A
N41          C45   1.346       .  A
N42          C43   1.346       .  A
C43          C44   1.380       .  A
C43          H46   1.084       .  S
C44         C414   1.438       .  S
C44          C45   1.380       .  A
C45          H47   1.084       .  S
N48          N49   1.324       .  A
N48          C52   1.344       .  A
N49          C50   1.346       .  A
C50          C51   1.379       .  A
C50          H53   1.081       .  S
C51         C426   1.436       .  S
C51          C52   1.379       .  A
C52          H54   1.082       .  S
C55         C407   1.488       .  S
C55         C409   1.467       .  S
C55         C411   1.477       .  S
C55         C424   1.466       .  S
C56         C402   1.487       .  S
C56         C404   1.466       .  S
C56         C406   1.479       .  S
C56         C417   1.467       .  S
N57          N58   1.324       .  A
N57          C61   1.346       .  A
N57         Cu65   2.073   1_545  S
N58          C59   1.344       .  A
N58         Cu64   2.074       .  S
C59          C60   1.379       .  A
C59          H62   1.082       .  S
C60         C403   1.436       .  S
C60          C61   1.379       .  A
C61          H63   1.081       .  S
Cu64         N67   2.073   1_545  S
Cu65         N75   2.074       .  S
Cu66         N68   2.073       .  S
Cu66         N74   2.075       .  S
N67          N68   1.322       .  A
N67          C71   1.346   1_565  A
N68          C69   1.345       .  A
C69          C70   1.379       .  A
C69          H72   1.084       .  S
C70         C400   1.437       .  S
C70          C71   1.380   1_565  A
C71          H73   1.083       .  S
N74          N75   1.323       .  A
N74          C78   1.345       .  A
N75          C76   1.346       .  A
C76          C77   1.380       .  A
C76          H79   1.081       .  S
C77         C410   1.437       .  S
C77          C78   1.379       .  A
C78          H80   1.083       .  S
O81         Cu89   1.955       .  S
O81          C91   1.270   1_554  A
O82         Cu89   2.007       .  S
O82          C92   1.276   1_554  A
O83         Cu89   2.014   1_545  S
O83          C93   1.278       .  A
O84         Cu89   2.015   1_556  S
O84          C94   1.278       .  A
O85         Cu90   2.011   1_565  S
O85          C94   1.278       .  A
O86         Cu90   2.015   1_554  S
O86          C93   1.278       .  A
O87         Cu90   2.008       .  S
O87          C92   1.276   1_545  A
O88         Cu90   1.956       .  S
O88          C91   1.270   1_545  A
Cu89        Cu90   2.383   1_564  S
C91         C398   1.388       .  S
C92         C391   1.435       .  S
C93         C394   1.445       .  S
C94         C395   1.444       .  S
O95        Cu103   1.955       .  S
O95         C105   1.270   1_554  A
O96        Cu103   2.007       .  S
O96         C106   1.276   1_554  A
O97        Cu103   2.014   1_556  S
O97         C107   1.278       .  A
O98        Cu103   2.014   1_545  S
O98         C108   1.278       .  A
O99        Cu104   2.015   1_554  S
O99         C108   1.278       .  A
O100       Cu104   2.011   1_565  S
O100        C107   1.278       .  A
O101       Cu104   2.007       .  S
O101        C106   1.276   1_545  A
O102       Cu104   1.955       .  S
O102        C105   1.270   1_545  A
Cu103      Cu104   2.383   1_564  S
C105        C397   1.388       .  S
C106        C389   1.435       .  S
C107        C412   1.444       .  S
C108        C405   1.446       .  S
C109        C385   1.466       .  S
C109        C388   1.466       .  S
C109        C396   1.478       .  S
C109        C408   1.488       .  S
C110        C381   1.467       .  S
C110        C383   1.466       .  S
C110        C393   1.479       .  S
C110        C401   1.488       .  S
N111        N112   1.323       .  A
N111        C115   1.346       .  A
N111       Cu119   2.073       .  S
N112        C113   1.344       .  A
N112       Cu118   2.074       .  S
C113        C114   1.379       .  A
C113        H116   1.082       .  S
C114        C387   1.436       .  S
C114        C115   1.379       .  A
C115        H117   1.081       .  S
Cu118       N121   2.072       .  S
Cu119       N129   2.073   1_565  S
Cu120       N122   2.074   1_545  S
Cu120       N128   2.075       .  S
N121        N122   1.322       .  A
N121        C125   1.345       .  A
N122        C123   1.346   1_565  A
C123        C124   1.380   1_545  A
C123        H126   1.084       .  S
C124        C379   1.437       .  S
C124        C125   1.379       .  A
C125        H127   1.084       .  S
N128        N129   1.324       .  A
N128        C132   1.344       .  A
N129        C130   1.346       .  A
C130        C131   1.379       .  A
C130        H133   1.081       .  S
C131        C384   1.436       .  S
C131        C132   1.379       .  A
C132        H134   1.082       .  S
C135        C378   1.466       .  S
C135        C386   1.466       .  S
C135        C422   1.487       .  S
C135        C437   1.479       .  S
C136        C375   1.467       .  S
C136        C382   1.467       .  S
C136        C416   1.488       .  S
C136        C436   1.478       .  S
N137        N138   1.324       .  A
N137        C141   1.346       .  A
N137       Cu145   2.074       .  S
N138        C139   1.344       .  A
N138       Cu144   2.074       .  S
C139        C140   1.379       .  A
C139        H142   1.082       .  S
C140        C377   1.436       .  S
C140        C141   1.379       .  A
C141        H143   1.081       .  S
Cu144       N147   2.073       .  S
Cu145       N155   2.074       .  S
Cu146       N148   2.075       .  S
Cu146       N154   2.076       .  S
N147        N148   1.322       .  A
N147        C151   1.346       .  A
N148        C149   1.346       .  A
C149        C150   1.380       .  A
C149        H152   1.084       .  S
C150        C373   1.438       .  S
C150        C151   1.380       .  A
C151        H153   1.084       .  S
N154        N155   1.324       .  A
N154        C158   1.345       .  A
N155        C156   1.347       .  A
C156        C157   1.380       .  A
C156        H159   1.081       .  S
C157        C376   1.437       .  S
C157        C158   1.379       .  A
C158        H160   1.083       .  S
O161       Cu169   2.008       .  S
O161        C171   1.276       .  A
O162       Cu169   1.956       .  S
O162        C172   1.270       .  A
O163       Cu169   2.014       .  S
O163        C173   1.278       .  A
O164       Cu169   2.012       .  S
O164        C174   1.278       .  A
O165       Cu170   2.015       .  S
O165        C174   1.278       .  A
O166       Cu170   2.013       .  S
O166        C173   1.278       .  A
O167       Cu170   1.955       .  S
O167        C172   1.270       .  A
O168       Cu170   2.007       .  S
O168        C171   1.276       .  A
Cu169      Cu170   2.382       .  S
C171        C413   1.435       .  S
C172        C371   1.389       .  S
C173        C367   1.445       .  S
C174        C370   1.445       .  S
O175       Cu183   2.009       .  S
O175        C185   1.276       .  A
O176       Cu183   1.957       .  S
O176        C186   1.270       .  A
O177       Cu183   2.011       .  S
O177        C187   1.278       .  A
O178       Cu183   2.014       .  S
O178        C188   1.278       .  A
O179       Cu184   2.013       .  S
O179        C188   1.278       .  A
O180       Cu184   2.015       .  S
O180        C187   1.278       .  A
O181       Cu184   1.955       .  S
O181        C186   1.270       .  A
O182       Cu184   2.006       .  S
O182        C185   1.276       .  A
Cu183      Cu184   2.382       .  S
C185        C374   1.435       .  S
C186        C372   1.389       .  S
C187        C366   1.444       .  S
C188        C363   1.445       .  S
C189        C357   1.488       .  S
C189        C359   1.467       .  S
C189        C362   1.467       .  S
C189        C365   1.478       .  S
C190        C352   1.487       .  S
C190        C353   1.466       .  S
C190        C356   1.466       .  S
C190        C364   1.478       .  S
N191        N192   1.324       .  A
N191        C195   1.346       .  A
N191       Cu199   2.073       .  S
N192        C193   1.345       .  A
N192       Cu198   2.075       .  S
C193        C194   1.379       .  A
C193        H196   1.083       .  S
C194        C361   1.437       .  S
C194        C195   1.379       .  A
C195        H197   1.081       .  S
Cu198       N201   2.074       .  S
Cu199       N209   2.073   1_556  S
Cu200       N202   2.073       .  S
Cu200       N208   2.074       .  S
N201        N202   1.322   1_556  A
N201        C205   1.346       .  A
N202        C203   1.346       .  A
C203        C204   1.380   1_554  A
C203        H206   1.084       .  S
C204        C434   1.437       .  S
C204        C205   1.380       .  A
C205        H207   1.084       .  S
N208        N209   1.324       .  A
N208        C212   1.344       .  A
N209        C210   1.346       .  A
C210        C211   1.379       .  A
C210        H213   1.081       .  S
C211        C355   1.436       .  S
C211        C212   1.379       .  A
C212        H214   1.082       .  S
C215        C345   1.487       .  S
C215        C347   1.467       .  S
C215        C349   1.479       .  S
C215        C360   1.467       .  S
C216        C339   1.487       .  S
C216        C342   1.466       .  S
C216        C343   1.478       .  S
C216        C354   1.466       .  S
N217        N218   1.324       .  A
N217        C221   1.346       .  A
N217       Cu225   2.073       .  S
N218        C219   1.344       .  A
N218       Cu224   2.075       .  S
C219        C220   1.379       .  A
C219        H222   1.082       .  S
C220        C348   1.437       .  S
C220        C221   1.379       .  A
C221        H223   1.081       .  S
Cu224       N227   2.074       .  S
Cu225       N235   2.073   1_566  S
Cu226       N228   2.073       .  S
Cu226       N234   2.074       .  S
N227        N228   1.322   1_566  A
N227        C231   1.346       .  A
N228        C229   1.346       .  A
C229        C230   1.380   1_544  A
C229        H232   1.084       .  S
C230        C392   1.437       .  S
C230        C231   1.380       .  A
C231        H233   1.084       .  S
N234        N235   1.324       .  A
N234        C238   1.344       .  A
N235        C236   1.346       .  A
C236        C237   1.380       .  A
C236        H239   1.081       .  S
C237        C341   1.436       .  S
C237        C238   1.379       .  A
C238        H240   1.083       .  S
O241       Cu249   2.007       .  S
O241        C251   1.276       .  A
O242       Cu249   1.955       .  S
O242        C252   1.270       .  A
O243       Cu249   2.011   1_545  S
O243        C253   1.278       .  A
O244       Cu249   2.015       .  S
O244        C254   1.278       .  A
O245       Cu250   2.013   1_565  S
O245        C254   1.278       .  A
O246       Cu250   2.014       .  S
O246        C253   1.278       .  A
O247       Cu250   1.954       .  S
O247        C252   1.270   1_545  A
O248       Cu250   2.006       .  S
O248        C251   1.276   1_545  A
Cu249      Cu250   2.383   1_565  S
C251        C399   1.434       .  S
C252        C337   1.388       .  S
C253        C333   1.444       .  S
C254        C335   1.445       .  S
O255       Cu263   2.007       .  S
O255        C265   1.276       .  A
O256       Cu263   1.955       .  S
O256        C266   1.270       .  A
O257       Cu263   2.015       .  S
O257        C267   1.278       .  A
O258       Cu263   2.012   1_545  S
O258        C268   1.278       .  A
O259       Cu264   2.015       .  S
O259        C268   1.278       .  A
O260       Cu264   2.013   1_565  S
O260        C267   1.278       .  A
O261       Cu264   1.955       .  S
O261        C266   1.270   1_545  A
O262       Cu264   2.007       .  S
O262        C265   1.276   1_545  A
Cu263      Cu264   2.383   1_565  S
C265        C380   1.434       .  S
C266        C338   1.388       .  S
C267        C350   1.445       .  S
C268        C344   1.444       .  S
C269        C329   1.467       .  S
C269        C331   1.467       .  S
C269        C358   1.488       .  S
C269        C369   1.478       .  S
C270        C325   1.466       .  S
C270        C328   1.466       .  S
C270        C351   1.487       .  S
C270        C368   1.479       .  S
N271        N272   1.324       .  A
N271        C275   1.346       .  A
N271       Cu279   2.073   1_554  S
N272        C273   1.344       .  A
N272       Cu278   2.074       .  S
C273        C274   1.379       .  A
C273        H276   1.082       .  S
C274        C327   1.436       .  S
C274        C275   1.379       .  A
C275        H277   1.081       .  S
Cu278       N281   2.073       .  S
Cu279       N289   2.073       .  S
Cu280       N282   2.074       .  S
Cu280       N288   2.075       .  S
N281        N282   1.322   1_554  A
N281        C285   1.346       .  A
N282        C283   1.346       .  A
C283        C284   1.380       .  A
C283        H286   1.084       .  S
C284        C428   1.437       .  S
C284        C285   1.380   1_556  A
C285        H287   1.084       .  S
N288        N289   1.324       .  A
N288        C292   1.345       .  A
N289        C290   1.346       .  A
C290        C291   1.379       .  A
C290        H293   1.081       .  S
C291        C332   1.437       .  S
C291        C292   1.379       .  A
C292        H294   1.083       .  S
C295        C323   1.466       .  S
C295        C330   1.467       .  S
C295        C336   1.479       .  S
C295        C346   1.487       .  S
C296        C322   1.467       .  S
C296        C326   1.466       .  S
C296        C334   1.477       .  S
C296        C340   1.488       .  S
N297        N298   1.323       .  A
N297        C301   1.347       .  A
N297       Cu305   2.073   1_544  S
N298        C299   1.344       .  A
N298       Cu304   2.074       .  S
C299        C300   1.379       .  A
C299        H302   1.083       .  S
C300        C321   1.437       .  S
C300        C301   1.380       .  A
C301        H303   1.081       .  S
Cu304       N307   2.073       .  S
Cu305       N315   2.073       .  S
Cu306       N308   2.073       .  S
Cu306       N314   2.074       .  S
N307        N308   1.322   1_544  A
N307        C311   1.345       .  A
N308        C309   1.346       .  A
C309        C310   1.380       .  A
C309        H312   1.084       .  S
C310        C390   1.437       .  S
C310        C311   1.379   1_566  A
C311        H313   1.084       .  S
N314        N315   1.324       .  A
N314        C318   1.344       .  A
N315        C316   1.346       .  A
C316        C317   1.379       .  A
C316        H319   1.081       .  S
C317        C324   1.436       .  S
C317        C318   1.379       .  A
C318        H320   1.082       .  S
C321        C322   1.207       .  T
C323        C324   1.206       .  T
C325        C326   1.207       .  T
C327        C328   1.206       .  T
C329        C330   1.208       .  T
C331        C332   1.207       .  T
C333        C334   1.213       .  T
C335        C336   1.214       .  T
C337        C338   1.178   1_455  T
C339        C340   1.220   1_655  T
C341        C342   1.207       .  T
C343        C344   1.214       .  T
C345        C346   1.220   1_655  T
C347        C348   1.207       .  T
C349        C350   1.214       .  T
C351        C352   1.220   1_455  T
C353        C354   1.207       .  T
C355        C356   1.206       .  T
C357        C358   1.220   1_655  T
C359        C360   1.208       .  T
C361        C362   1.207       .  T
C363        C364   1.214       .  T
C365        C366   1.213       .  T
C367        C368   1.214       .  T
C369        C370   1.214       .  T
C371        C372   1.179   1_455  T
C373        C374   1.206       .  T
C375        C376   1.207       .  T
C377        C378   1.206       .  T
C379        C380   1.206       .  T
C381        C382   1.208       .  T
C383        C384   1.206       .  T
C385        C386   1.207       .  T
C387        C388   1.206       .  T
C389        C390   1.206       .  T
C391        C392   1.206       .  T
C393        C394   1.214       .  T
C395        C396   1.214       .  T
C397        C398   1.178       .  T
C399        C400   1.205       .  T
C401        C402   1.220       .  T
C403        C404   1.206       .  T
C405        C406   1.214       .  T
C407        C408   1.220       .  T
C409        C410   1.207       .  T
C411        C412   1.213       .  T
C413        C414   1.206       .  T
C415        C416   1.220       .  T
C417        C418   1.208       .  T
C419        C420   1.207       .  T
C421        C422   1.220       .  T
C423        C424   1.207       .  T
C425        C426   1.206       .  T
C427        C428   1.206       .  T
C429        C430   1.214       .  T
C431        C432   1.214       .  T
C433        C434   1.206       .  T
C435        C436   1.214       .  T
C437        C438   1.214       .  T
C439        C440   1.178       .  T
