geometry optimzed in LAMMPS
_audit_creation_date              2020-12-01 
_audit_creation_method            'lammps2cif' 
_symmetry_space_group_name_H-M    'P1' 
_symmetry_Int_Tables_number       1 
_symmetry_cell_setting            triclinic 
loop_ 
_symmetry_equiv_pos_as_xyz 
  x,y,z 
_cell_length_a                    35.99734689 
_cell_length_b                    35.965372204445494 
_cell_length_c                    30.98594244483007 
_cell_angle_alpha                 88.7114247585806 
_cell_angle_beta                  123.51076657111368 
_cell_angle_gamma                 91.3080539573188 
loop_ 
_atom_site_label 
_atom_site_type_symbol 
_atom_site_fract_x 
_atom_site_fract_y 
_atom_site_fract_z 
_atom_site_charge 
O1          O  0.47084877  0.01161310  0.88578388    -0.56000
C2          C  0.37215952  0.49909798  0.72086343     0.76600
O3          O  0.50641233  0.04923112  0.77558170    -0.57200
C4          C  0.51302776  0.00899791  0.91376769     0.76600
C5          C  0.49641046  0.43870627  0.78929104     0.79000
Cd6        Cd  0.46692682  0.50842061  0.80295790     1.37500
O7          O  0.38401723  0.50598240  0.76685355    -0.56000
O8          O  0.47353085  0.44092290  0.80879014    -0.54800
C9          C  0.49092066  0.07935003  0.77927505     0.78900
O10         O  0.50633533  0.46925566  0.77662182    -0.57200
O11         O  0.40334461  0.49706702  0.71365688    -0.55600
O12         O  0.53159994  0.00606507  0.88935244    -0.55600
O13         O  0.46278610  0.07616612  0.79155136    -0.54800
C14         C  0.54648713  0.29477979  0.75107586     0.88300
C15         C  0.52009456  0.28979017  0.69197973    -0.51900
C16         C  0.53117151  0.25919126  0.67649724     0.11200
C17         C  0.56711096  0.23548642  0.72116658     0.22200
C18         C  0.53931841  0.25764085  0.77174324    -0.52700
C19         C  0.54847237  0.22651369  0.75473335     0.11300
C20         C  0.59555088  0.29336956  0.76911829    -0.52200
C21         C  0.60630073  0.26298394  0.75269475     0.11900
H22         H  0.49337794  0.30813568  0.66467168     0.16400
H23         H  0.57540283  0.21081477  0.70731722     0.02200
H24         H  0.52843614  0.25480600  0.79774400     0.16700
H25         H  0.61892724  0.31617543  0.78913016     0.16500
C26         C  0.39168227  0.23811676  0.46305712     0.31800
C27         C  0.30743831  0.24684327  0.37623525     0.31800
C28         C  0.38955866  0.25203093  0.41455595    -0.04400
C29         C  0.36268357  0.20270351  0.44225591    -0.05200
C30         C  0.36193627  0.26575443  0.46614761    -0.05000
C31         C  0.34619119  0.25654671  0.36919682    -0.04400
C32         C  0.31935252  0.20726627  0.39945624    -0.05200
C33         C  0.31934070  0.27030319  0.42302517    -0.05000
C34         C  0.35098179  0.25512302  0.32775983    -0.30400
N35         N  0.39473769  0.25019407  0.34664165     0.16100
C36         C  0.41771642  0.24667343  0.39861779    -0.30400
H37         H  0.45239093  0.23896857  0.42277342     0.18000
C38         C  0.29560542  0.17595657  0.39762062    -0.29400
N39         N  0.32377316  0.15238165  0.43682534     0.14800
C40         C  0.36515842  0.16775986  0.46197567    -0.29400
C41         C  0.29898262  0.29589644  0.43601431    -0.29700
N42         N  0.32919421  0.30700519  0.48534826     0.15300
H43         H  0.26509665  0.30566865  0.41175438     0.17900
C44         C  0.36758741  0.28887620  0.50381517    -0.29700
H45         H  0.39719792  0.29189283  0.54245560     0.17900
H46         H  0.39372847  0.15653512  0.49713807     0.17900
H47         H  0.32455190  0.25591076  0.28706152     0.18000
H48         H  0.25977431  0.17248241  0.37310056     0.17900
C49         C  0.07876539  0.03876617  0.29867162     0.88300
C50         C  0.10516442  0.03473620  0.35799156    -0.51900
C51         C  0.09667196  0.50400666  0.37676301     0.11200
C52         C  0.06082860  0.47942181  0.33321071     0.22200
C53         C  0.09031717  0.50273202  0.28322766    -0.52700
C54         C  0.07950569  0.47105263  0.29978003     0.11300
C55         C  0.02959676  0.03517692  0.28005592    -0.52200
C56         C  0.02123917  0.50584155  0.30055589     0.11900
H57         H  0.13173930  0.05386409  0.38402032     0.16400
H58         H  0.05223425  0.45457363  0.34785488     0.02200
H59         H  0.10707820  0.50090475  0.26347096     0.16700
H60         H  0.00566380  0.05675356  0.25709944     0.16500
C61         C  0.32403949  0.49352780  0.67600640     0.31800
C62         C  0.23862373  0.48281157  0.59082079     0.31800
C63         C  0.30740752  0.01920480  0.62841242    -0.04400
C64         C  0.31309113  0.45457882  0.65169096    -0.05200
C65         C  0.28595830  0.49874478  0.68476063    -0.05000
C66         C  0.26430604  0.01405822  0.58612318    -0.04400
C67         C  0.26924926  0.44898407  0.61013087    -0.05200
C68         C  0.24229917  0.49295109  0.64096089    -0.05000
C69         C  0.25783158  0.03779032  0.54747164    -0.30400
N70         N  0.29615784  0.05665710  0.56428823     0.16100
C71         C  0.32704654  0.04562970  0.61375865    -0.30400
H72         H  0.36122796  0.05552058  0.63671115     0.18000
C73         C  0.26659074  0.41476265  0.59032946    -0.29400
N74         N  0.30811096  0.40098390  0.61383366     0.14800
C75         C  0.33693257  0.42481702  0.65200584    -0.29400
C76         C  0.21442974  0.49247025  0.65806013    -0.29700
N77         N  0.23860278  0.50024252  0.70909403     0.15300
H78         H  0.17925984  0.48562581  0.63612540     0.17900
C79         C  0.28230736  0.50389039  0.72635153    -0.29700
H80         H  0.30906846  0.50909980  0.76604292     0.17900
H81         H  0.37286225  0.42259309  0.67467567     0.17900
H82         H  0.22798047  0.04011072  0.50886591     0.18000
H83         H  0.23750857  0.40317099  0.55598699     0.17900
O84         O  0.15782585  0.25953203  0.17007351    -0.56000
C85         C  0.25915916  0.25111865  0.33205609     0.76600
O86         O  0.13710256  0.29866412  0.29487098    -0.57200
C87         C  0.11572290  0.25524276  0.14249866     0.76600
C88         C  0.13020753  0.18620571  0.26272694     0.79000
Cd89       Cd  0.16377748  0.25750827  0.25398746     1.37500
O90         O  0.24621558  0.26143527  0.28644277    -0.56000
O91         O  0.15740817  0.18973293  0.24910102    -0.54800
C92         C  0.13692760  0.32828750  0.27189718     0.78900
O93         O  0.11873677  0.21604482  0.27315420    -0.57200
O94         O  0.22881676  0.24453208  0.34007345    -0.55600
O95         O  0.09689027  0.25217029  0.16682002    -0.55600
O96         O  0.15046651  0.32538895  0.24215415    -0.54800
O97         O  0.65951385  0.00532525  0.16823291    -0.56000
C98         C  0.76168806  0.50442068  0.33960487     0.76600
O99         O  0.63038839  0.04169668  0.28685608    -0.57200
C100        C  0.61712826  0.00578827  0.14013758     0.76600
C101        C  0.63866628  0.43243582  0.26727989     0.79000
Cd102      Cd  0.66665165  0.50558881  0.25637246     1.37500
O103        O  0.74983985  0.51468972  0.29428688    -0.56000
O104        O  0.66083517  0.43768349  0.24707895    -0.54800
C105        C  0.63414702  0.07222598  0.26834132     0.78900
O106        O  0.62919776  0.46129662  0.28187124    -0.57200
O107        O  0.73048890  0.49533136  0.34516716    -0.55600
O108        O  0.59809055  0.00465439  0.16433230    -0.55600
O109        O  0.65326291  0.07100808  0.24428536    -0.54800
C110        C  0.05413729  0.04766050  0.76633477     0.88300
C111        C  0.02578151  0.04456175  0.70691177    -0.51900
C112        C  0.03847675  0.51518614  0.69002879     0.11200
C113        C  0.07286402  0.48864284  0.73199019     0.22200
C114        C  0.04929174  0.51110718  0.78676284    -0.52700
C115        C  0.05504270  0.47987927  0.76661543     0.11300
C116        C  0.10248450  0.04419642  0.78225226    -0.52200
C117        C  0.11483345  0.51346504  0.76485517     0.11900
H118        H  0.99982021  0.06415888  0.68154697     0.16400
H119        H  0.07817367  0.46377668  0.71552668     0.02200
H120        H  0.03907249  0.50923774  0.81371453     0.16700
H121        H  0.12757794  0.06541095  0.80456593     0.16500
C122        C  0.89359027  0.49961256  0.47466399     0.31800
C123        C  0.80964085  0.50297948  0.38589473     0.31800
C124        C  0.89167244  0.51366717  0.42624061    -0.04400
C125        C  0.86814809  0.46257322  0.45509426    -0.05200
C126        C  0.85858792  0.02142515  0.47392962    -0.05000
C127        C  0.84814396  0.51551818  0.37985293    -0.04400
C128        C  0.82490683  0.46424520  0.41118319    -0.05200
C129        C  0.81598198  0.02342324  0.42996316    -0.05000
C130        C  0.85354306  0.51086459  0.33936457    -0.30400
N131        N  0.89737009  0.50654167  0.35908903     0.16100
C132        C  0.92024350  0.50665143  0.41116804    -0.30400
H133        H  0.95502081  0.49953426  0.43618717     0.18000
C134        C  0.80386182  0.43157055  0.41081332    -0.29400
N135        N  0.83377283  0.41002682  0.45177394     0.14800
C136        C  0.87344772  0.42820878  0.47724876    -0.29400
C137        C  0.79261358  0.04688406  0.44152935    -0.29700
N138        N  0.82111387  0.05904498  0.49079179     0.15300
H139        H  0.75804667  0.05472480  0.41628325     0.17900
C140        C  0.86125790  0.04379637  0.51051357    -0.29700
H141        H  0.89024468  0.04858153  0.54915593     0.17900
H142        H  0.90237123  0.41916501  0.51380771     0.17900
H143        H  0.82731838  0.50851273  0.29875230     0.18000
H144        H  0.76853248  0.42560558  0.38570222     0.17900
C145        C  0.58628694  0.28434643  0.30046927     0.88300
C146        C  0.61143822  0.27961672  0.35940000    -0.51900
C147        C  0.59988556  0.24881111  0.37568733     0.11200
C148        C  0.56349020  0.22488138  0.33150695     0.22200
C149        C  0.59458283  0.24741157  0.28272861    -0.52700
C150        C  0.58249346  0.21604816  0.29865588     0.11300
C151        C  0.53668745  0.28199288  0.28045101    -0.52200
C152        C  0.52485358  0.25202118  0.29832642     0.11900
H153        H  0.63827938  0.29822998  0.38630734     0.16400
H154        H  0.55353595  0.20029125  0.34522134     0.02200
H155        H  0.61000852  0.24524077  0.26142768     0.16700
H156        H  0.51364717  0.30420839  0.25786167     0.16500
C157        C  0.73950834  0.23560482  0.59152962     0.31800
C158        C  0.82324201  0.24482101  0.67883168     0.31800
C159        C  0.74122998  0.25398527  0.63669311    -0.04400
C160        C  0.76486461  0.19972550  0.61808648    -0.05200
C161        C  0.77241837  0.25958810  0.58655173    -0.05000
C162        C  0.78453639  0.25899272  0.68234001    -0.04400
C163        C  0.80873679  0.20420039  0.66098339    -0.05200
C164        C  0.81458973  0.26450081  0.63009168    -0.05000
C165        C  0.77897193  0.25965431  0.72318539    -0.30400
N166        N  0.73504543  0.25529383  0.70391587     0.16100
C167        C  0.71272412  0.24968473  0.65268188    -0.30400
H168        H  0.67825941  0.24053941  0.62953799     0.18000
C169        C  0.83108817  0.17354209  0.66043099    -0.29400
N170        N  0.80136702  0.15001215  0.62251914     0.14800
C171        C  0.76061282  0.16505550  0.59880352    -0.29400
C172        C  0.83607826  0.29052531  0.61750211    -0.29700
N173        N  0.80719437  0.30116839  0.56738813     0.15300
H174        H  0.86907590  0.30225353  0.64333004     0.17900
C175        C  0.76839217  0.28246304  0.54838541    -0.29700
H176        H  0.73883417  0.28621118  0.50984877     0.17900
H177        H  0.73175173  0.15465880  0.56319179     0.17900
H178        H  0.80495385  0.26129864  0.76392962     0.18000
H179        H  0.86691580  0.17123590  0.68085384     0.17900
O180        O  0.96992930  0.25150502  0.88903094    -0.56000
C181        C  0.87102684  0.25025481  0.72428855     0.76600
O182        O  0.00698239  0.30317537  0.78114613    -0.57200
C183        C  0.01088404  0.26060045  0.91737074     0.76600
C184        C  0.00146739  0.19168488  0.79948440     0.79000
Cd185      Cd  0.96540208  0.26083665  0.80552380     1.37500
O186        O  0.88216555  0.26496808  0.76675930    -0.56000
O187        O  0.98024354  0.19405682  0.82095629    -0.54800
C188        C  0.99177521  0.33325430  0.78557665     0.78900
O189        O  0.00638096  0.22173001  0.78082512    -0.57200
O190        O  0.90273148  0.24103242  0.72043070    -0.55600
O191        O  0.02867466  0.27112142  0.89360812    -0.55600
O192        O  0.96290247  0.32975034  0.79676112    -0.54800
C193        C  0.62277735  0.25314635  0.46739687     0.25400
C194        C  0.62787247  0.23697774  0.43030390    -0.22700
C195        C  0.66669147  0.21765158  0.44631813     0.20300
C196        C  0.70039945  0.21487495  0.49849349     0.25300
C197        C  0.69664352  0.23163981  0.53704950    -0.22600
C198        C  0.65702841  0.25124263  0.52015054     0.20200
F199        F  0.65329467  0.27318118  0.55239881    -0.12600
F200        F  0.58657249  0.27423999  0.45198529    -0.15000
F201        F  0.73980584  0.20119546  0.51001135    -0.15000
F202        F  0.67474752  0.20574894  0.41095387    -0.12600
C203        C  0.85619136  0.35242514  0.50402314     0.25400
C204        C  0.82411532  0.38008605  0.47571773    -0.22700
C205        C  0.78670715  0.38156598  0.47900647     0.20300
C206        C  0.78156560  0.35584725  0.50969130     0.25300
C207        C  0.81416595  0.32884024  0.53865243    -0.22600
C208        C  0.85157905  0.32740358  0.53586153     0.20200
F209        F  0.88307496  0.30120949  0.56308083    -0.12600
F210        F  0.89249179  0.35011968  0.50143620    -0.15000
F211        F  0.74540302  0.35808126  0.51261066    -0.15000
F212        F  0.75650134  0.40916353  0.45527533    -0.12600
C213        C  0.78663853  0.07102500  0.53853759     0.25400
C214        C  0.81274191  0.08331194  0.52020197    -0.22700
C215        C  0.83790002  0.11628704  0.53926719     0.20300
C216        C  0.83657684  0.13712808  0.57574225     0.25300
C217        C  0.81072426  0.12482720  0.59464040    -0.22600
C218        C  0.78566800  0.09164644  0.57561655     0.20200
F219        F  0.75946557  0.07990122  0.59224094    -0.12600
F220        F  0.76335498  0.03852150  0.52167243    -0.15000
F221        F  0.85841847  0.17039349  0.59026596    -0.15000
F222        F  0.86379835  0.12815237  0.52226689    -0.12600
C223        C  0.05031298  0.11793748  0.75958778     0.25400
C224        C  0.04538018  0.08508967  0.78217597    -0.22700
C225        C  0.03027832  0.08895658  0.81541704     0.20300
C226        C  0.01671751  0.12358200  0.82147480     0.25300
C227        C  0.01878343  0.15556634  0.79576570    -0.22600
C228        C  0.03680239  0.15241525  0.76576849     0.20200
F229        F  0.04012183  0.18249017  0.74075424    -0.12600
F230        F  0.06668502  0.11646434  0.72928740    -0.15000
F231        F  0.00127304  0.12555613  0.85263936    -0.15000
F232        F  0.02902151  0.06011550  0.84335479    -0.12600
C233        C  0.99822685  0.43778448  0.76730815     0.25400
C234        C  0.03936042  0.44207762  0.77195099    -0.22700
C235        C  0.06408942  0.40997212  0.77980997     0.20300
C236        C  0.04853851  0.37466830  0.78365390     0.25300
C237        C  0.00754782  0.37049032  0.77929526    -0.22600
C238        C  0.98255724  0.40255808  0.77082994     0.20200
F239        F  0.94233013  0.39988954  0.76496582    -0.12600
F240        F  0.97209859  0.46762321  0.75743385    -0.15000
F241        F  0.07439331  0.34469612  0.79317554    -0.15000
F242        F  0.10412109  0.41266549  0.78549714    -0.12600
C243        C  0.93223894  0.97852055  0.56774978     0.25400
C244        C  0.93665530  0.49844345  0.52940032    -0.22700
C245        C  0.97563515  0.51923531  0.54361613     0.20300
C246        C  0.01064745  0.52265438  0.59603877     0.25300
C247        C  0.00762215  0.50535459  0.63507932    -0.22600
C248        C  0.96700533  0.98150976  0.61933469     0.20200
F249        F  0.96181993  0.96608865  0.65607457    -0.12600
F250        F  0.89354684  0.96338314  0.55830844    -0.15000
F251        F  0.04614793  0.54503202  0.60898435    -0.15000
F252        F  0.97812599  0.54006714  0.50833264    -0.12600
C253        C  0.63500965  0.36295137  0.25660677     0.25400
C254        C  0.62471198  0.39466561  0.27371820    -0.22700
C255        C  0.60157847  0.38986256  0.29799427     0.20300
C256        C  0.58904999  0.35445117  0.30490872     0.25300
C257        C  0.59897452  0.32223048  0.28777267    -0.22600
C258        C  0.62254102  0.32723019  0.26358357     0.20200
F259        F  0.63543886  0.29826321  0.24798515    -0.12600
F260        F  0.65801745  0.36625876  0.23371959    -0.15000
F261        F  0.56812003  0.35168014  0.33027795    -0.15000
F262        F  0.59162820  0.41938608  0.31627748    -0.12600
C263        C  0.60101257  0.13513973  0.23545293     0.25400
C264        C  0.61729429  0.10756366  0.27436999    -0.22700
C265        C  0.61791885  0.11434627  0.31920049     0.20300
C266        C  0.60522976  0.14895151  0.32654440     0.25300
C267        C  0.59106831  0.17753517  0.28875670    -0.22600
C268        C  0.58753584  0.16949837  0.24222832     0.20200
F269        F  0.57038250  0.19467579  0.20268096    -0.12600
F270        F  0.59739908  0.12861080  0.19026616    -0.15000
F271        F  0.60888823  0.15455564  0.37185037    -0.15000
F272        F  0.63279883  0.08802323  0.35716518    -0.12600
C273        C  0.08345210  0.26732929  0.00382770     0.25400
C274        C  0.03743956  0.25856558  0.97502601    -0.22700
C275        C  0.01803278  0.24676244  0.00199794     0.20300
C276        C  0.04367976  0.24472796  0.05624301     0.25300
C277        C  0.08936782  0.25462753  0.08493597    -0.22600
C278        C  0.10904191  0.26514429  0.05791509     0.20200
F279        F  0.15314014  0.27380651  0.08373114    -0.12600
F280        F  0.10413638  0.27810609  0.97982464    -0.15000
F281        F  0.02365753  0.23267898  0.08054353    -0.15000
F282        F  0.97419618  0.23712169  0.97606839    -0.12600
C283        C  0.20990480  0.47607469  0.75980581     0.25400
C284        C  0.21842612  0.50629021  0.73702853    -0.22700
C285        C  0.19704402  0.54007955  0.72967961     0.20300
C286        C  0.16493522  0.54293095  0.74130457     0.25300
C287        C  0.15418153  0.51195775  0.76128314    -0.22600
C288        C  0.17825098  0.47900708  0.77241014     0.20200
F289        F  0.17023656  0.44937644  0.79396096    -0.12600
F290        F  0.22974445  0.44298479  0.76597060    -0.15000
F291        F  0.15000485  0.07798113  0.74459024    -0.15000
F292        F  0.21386671  0.07195095  0.72474615    -0.12600
C293        C  0.08029284  0.10910564  0.30144543     0.25400
C294        C  0.08918574  0.07675794  0.28344112    -0.22700
C295        C  0.10842653  0.08181397  0.25430601     0.20300
C296        C  0.12066847  0.11740214  0.24669336     0.25300
C297        C  0.11358632  0.14905272  0.26703516    -0.22600
C298        C  0.09180087  0.14455242  0.29290631     0.20200
F299        F  0.08273413  0.17435791  0.31161088    -0.12600
F300        F  0.06145228  0.10640787  0.32915296    -0.15000
F301        F  0.13958402  0.12073064  0.21909022    -0.15000
F302        F  0.11615688  0.05313150  0.23295263    -0.12600
C303        C  0.10546038  0.40451546  0.32901078     0.25400
C304        C  0.09039228  0.43294911  0.29091964    -0.22700
C305        C  0.08891861  0.42547224  0.24539672     0.20300
C306        C  0.10453589  0.39183910  0.23967250     0.25300
C307        C  0.12100946  0.36417431  0.27857232    -0.22600
C308        C  0.12087021  0.37078788  0.32303838     0.20200
F309        F  0.13718355  0.34506219  0.36187524    -0.12600
F310        F  0.10703170  0.40934136  0.37323027    -0.15000
F311        F  0.10268564  0.38615646  0.19533804    -0.15000
F312        F  0.07142607  0.45038637  0.20550566    -0.12600
C313        C  0.19570701  0.96674699  0.49576992     0.25400
C314        C  0.19483422  0.47905993  0.53688071    -0.22700
C315        C  0.15540737  0.49813458  0.52247560     0.20300
C316        C  0.12126291  0.50354945  0.47001769     0.25300
C317        C  0.12612509  0.49112006  0.43089900    -0.22600
C318        C  0.16192143  0.97144801  0.44402419     0.20200
F319        F  0.16917198  0.96081978  0.40749321    -0.12600
F320        F  0.23515645  0.95503328  0.50520153    -0.15000
F321        F  0.08521758  0.52390848  0.45743493    -0.15000
F322        F  0.15180673  0.51623952  0.55771129    -0.12600
C323        C  0.96813871  0.03875135  0.31604498     0.25400
C324        C  0.98219094  0.50630834  0.30528369    -0.22700
C325        C  0.96057929  0.47304167  0.30501242     0.20300
C326        C  0.92915557  0.47326149  0.31842727     0.25300
C327        C  0.91872678  0.50668607  0.33164785    -0.22600
C328        C  0.93632563  0.03857968  0.32819068     0.20200
F329        F  0.92766520  0.07064794  0.34319057    -0.12600
F330        F  0.98978557  0.07133753  0.32100695    -0.15000
F331        F  0.91099990  0.44072995  0.32175933    -0.15000
F332        F  0.97108674  0.44020801  0.29380789    -0.12600
C333        C  0.35158783  0.36208867  0.53969411     0.25400
C334        C  0.32272816  0.33147236  0.51624631    -0.22700
C335        C  0.29236309  0.32191041  0.52954011     0.20300
C336        C  0.29074841  0.34283221  0.56588026     0.25300
C337        C  0.31845498  0.37441829  0.58815053    -0.22600
C338        C  0.34918554  0.38370842  0.57491845     0.20200
F339        F  0.37491169  0.41491631  0.59348199    -0.12600
F340        F  0.38139518  0.37142706  0.52731761    -0.15000
F341        F  0.26122062  0.33298311  0.57846958    -0.15000
F342        F  0.26506698  0.29181165  0.50810720    -0.12600
C343        C  0.27649314  0.13061932  0.46758434     0.25400
C344        C  0.31189195  0.12457819  0.46145716    -0.22700
C345        C  0.34113879  0.09498961  0.48894072     0.20300
C346        C  0.33682539  0.07343907  0.52399914     0.25300
C347        C  0.30268754  0.08053641  0.53143105    -0.22600
C348        C  0.27184557  0.10857258  0.50201695     0.20200
F349        F  0.23804626  0.11538423  0.50808871    -0.12600
F350        F  0.24806434  0.15927295  0.44304091    -0.12400
F351        F  0.36539948  0.04510821  0.55001309    -0.15000
F352        F  0.37479219  0.08771762  0.48283590    -0.12600
C353        C  0.44042288  0.28525344  0.32471837     0.25400
C354        C  0.41658814  0.25259455  0.31965674    -0.22700
C355        C  0.42477059  0.22033801  0.30161006     0.20300
C356        C  0.45852313  0.22030540  0.29177802     0.25300
C357        C  0.48428900  0.25265138  0.29991163    -0.22600
C358        C  0.47398955  0.28536694  0.31530344     0.20200
F359        F  0.49920130  0.31670971  0.32637270    -0.12600
F360        F  0.43426079  0.31615897  0.34430516    -0.15000
F361        F  0.46715028  0.18844834  0.27634759    -0.15000
F362        F  0.40223914  0.18836780  0.29718200    -0.12600
C363        C  0.43333524  0.21875103  0.55761813     0.25400
C364        C  0.43532879  0.23535743  0.51684038    -0.22700
C365        C  0.47294977  0.25824194  0.53107678     0.20300
C366        C  0.50666793  0.26373181  0.58349019     0.25300
C367        C  0.50368451  0.24651644  0.62253032    -0.22600
C368        C  0.46802177  0.22261374  0.60905555     0.20200
F369        F  0.46342632  0.20710492  0.64621028    -0.12600
F370        F  0.39467840  0.20455428  0.54928774    -0.15000
F371        F  0.54045069  0.28815504  0.59620726    -0.15000
F372        F  0.47457062  0.27958753  0.49557142    -0.12600
C373        C  0.68565755  0.29204890  0.71503662     0.25400
C374        C  0.71247079  0.26063990  0.72922024    -0.22700
C375        C  0.70744738  0.23121321  0.75612152     0.20300
C376        C  0.67429542  0.23262045  0.76663785     0.25300
C377        C  0.64599930  0.26339327  0.75005239    -0.22600
C378        C  0.65267213  0.29349417  0.72520638     0.20200
F379        F  0.62465367  0.32286043  0.70645343    -0.12600
F380        F  0.68856029  0.31964560  0.68634637    -0.15000
F381        F  0.66873645  0.20350185  0.79117698    -0.15000
F382        F  0.73211468  0.20008721  0.76827496    -0.12600
C383        C  0.53198437  0.39985616  0.75532561     0.25400
C384        C  0.51025262  0.40226438  0.78137005    -0.22700
C385        C  0.50049611  0.36922443  0.79848457     0.20300
C386        C  0.51182830  0.33458456  0.78972280     0.25300
C387        C  0.53421845  0.33177294  0.76403417    -0.22600
C388        C  0.54341742  0.36526669  0.74646747     0.20200
F389        F  0.56273591  0.36455788  0.71924706    -0.12600
F390        F  0.54161590  0.43092542  0.73739804    -0.15000
F391        F  0.49843588  0.30452792  0.80487001    -0.15000
F392        F  0.47911534  0.37010485  0.82335632    -0.12600
C393        C  0.47956015  0.14788986  0.76255434     0.25400
C394        C  0.50519799  0.11640181  0.77076613    -0.22700
C395        C  0.54501789  0.12112400  0.77255415     0.20300
C396        C  0.55944800  0.15672163  0.76789290     0.25300
C397        C  0.53431875  0.18837623  0.76107345    -0.22600
C398        C  0.49376896  0.18325144  0.75769450     0.20200
F399        F  0.46653969  0.21230164  0.74758013    -0.12600
F400        F  0.43992918  0.14451794  0.75809166    -0.15000
F401        F  0.59869069  0.16010628  0.77161535    -0.15000
F402        F  0.57068988  0.09144364  0.78009867    -0.12600
C403        C  0.51894325  0.01309782  0.99883462     0.25400
C404        C  0.53964345  0.00908200  0.97173382    -0.22700
C405        C  0.58640133  0.00484962  0.00079747     0.20300
C406        C  0.61150255  0.00418790  0.05513726     0.25300
C407        C  0.59071360  0.00748734  0.08221864    -0.22600
C408        C  0.54402460  0.01220501  0.05319077     0.20200
F409        F  0.52227013  0.01613342  0.07725421    -0.12600
F410        F  0.47423958  0.01788937  0.97285595    -0.15000
F411        F  0.65627060  0.99983596  0.08113535    -0.15000
F412        F  0.60821620  0.00103987  0.97679430    -0.12600
O413        O  0.47294384  0.51159765  0.88819764    -0.56000
C414        C  0.36912821  0.99936661  0.72004167     0.76600
O415        O  0.50883176  0.55008099  0.77917849    -0.57200
C416        C  0.51519673  0.50991660  0.91656803     0.76600
C417        C  0.49457377  0.93808107  0.78870771     0.79000
Cd418      Cd  0.46438542  0.00803640  0.80064088     1.37500
O419        O  0.38153159  0.00766433  0.76578441    -0.56000
O420        O  0.47420235  0.94041592  0.81127111    -0.54800
C421        C  0.49192861  0.57992843  0.78119311     0.78900
O422        O  0.50088192  0.96831485  0.77170701    -0.57200
O423        O  0.39996836  0.99542813  0.71261985    -0.55600
O424        O  0.53407875  0.50753795  0.89242444    -0.55600
O425        O  0.46267066  0.57644392  0.79171031    -0.54800
C426        C  0.54738520  0.79488013  0.75330651     0.88300
C427        C  0.51952737  0.78901970  0.69426046    -0.51900
C428        C  0.53057694  0.75847056  0.67871884     0.11200
C429        C  0.56765428  0.73548409  0.72328805     0.22200
C430        C  0.54053554  0.75801655  0.77460191    -0.52700
C431        C  0.55026621  0.72681982  0.75828336     0.11300
C432        C  0.59594177  0.79393725  0.76960210    -0.52200
C433        C  0.60663312  0.76366870  0.75285633     0.11900
H434        H  0.49198781  0.80674816  0.66706837     0.16400
H435        H  0.57535799  0.71051406  0.70934244     0.02200
H436        H  0.52586696  0.75552603  0.79688456     0.16700
H437        H  0.61913268  0.81677115  0.78992069     0.16500
C438        C  0.39015367  0.73892405  0.46578489     0.31800
C439        C  0.30619050  0.74825155  0.37891908     0.31800
C440        C  0.38833761  0.75303142  0.41756899    -0.04400
C441        C  0.36092404  0.70373232  0.44452015    -0.05200
C442        C  0.36056326  0.76660327  0.46918616    -0.05000
C443        C  0.34502445  0.75799872  0.37221403    -0.04400
C444        C  0.31780297  0.70854467  0.40157811    -0.05200
C445        C  0.31801625  0.77141209  0.42596359    -0.05000
C446        C  0.34955421  0.75578126  0.33071556    -0.30400
N447        N  0.39300192  0.74973817  0.34941288     0.16100
C448        C  0.41605798  0.74634941  0.40136323    -0.30400
H449        H  0.45045338  0.73784545  0.42533607     0.18000
C450        C  0.29433319  0.67641982  0.39728417    -0.29400
N451        N  0.32247030  0.65227024  0.43562189     0.14800
C452        C  0.36359747  0.66818033  0.46251591    -0.29400
C453        C  0.29757046  0.79663802  0.43928942    -0.29700
N454        N  0.32760349  0.80728213  0.48890911     0.15300
H455        H  0.26367514  0.80639743  0.41510364     0.17900
C456        C  0.36607149  0.78926832  0.50724828    -0.29700
H457        H  0.39555358  0.79195392  0.54605237     0.17900
H458        H  0.39202023  0.65655984  0.49747726     0.17900
H459        H  0.32307670  0.75668589  0.29004366     0.18000
H460        H  0.25863182  0.67254181  0.37164241     0.17900
C461        C  0.08084117  0.53939896  0.30015842     0.88300
C462        C  0.10693359  0.53523820  0.35950690    -0.51900
C463        C  0.09504776  0.00363906  0.37550128     0.11200
C464        C  0.05917904  0.97889684  0.33232491     0.22200
C465        C  0.08812716  0.00201584  0.28170004    -0.52700
C466        C  0.07748411  0.97038613  0.29862271     0.11300
C467        C  0.03158367  0.53584098  0.28114877    -0.52200
C468        C  0.01952093  0.00514637  0.29970344     0.11900
H469        H  0.13361320  0.55422599  0.38569401     0.16400
H470        H  0.05075806  0.95418280  0.34734248     0.02200
H471        H  0.10450661  0.00015816  0.26148936     0.16700
H472        H  0.00775217  0.55745647  0.25809547     0.16500
C473        C  0.32083373  0.99433732  0.67552560     0.31800
C474        C  0.23555867  0.98415876  0.59011167     0.31800
C475        C  0.30977267  0.51911767  0.62924336    -0.04400
C476        C  0.30904203  0.95507844  0.65221601    -0.05200
C477        C  0.28273585  0.00122046  0.68369646    -0.05000
C478        C  0.26655813  0.51370236  0.58717815    -0.04400
C479        C  0.26529313  0.94977038  0.61043765    -0.05200
C480        C  0.23902667  0.99577061  0.63969616    -0.05000
C481        C  0.25976291  0.53708506  0.54814075    -0.30400
N482        N  0.29794724  0.55591770  0.56426015     0.16100
C483        C  0.32916343  0.54526227  0.61380944    -0.30400
H484        H  0.36344308  0.55495544  0.63610667     0.18000
C485        C  0.26221710  0.91514802  0.59127353    -0.29400
N486        N  0.30353094  0.90080400  0.61557131     0.14800
C487        C  0.33243548  0.92462341  0.65365482    -0.29400
C488        C  0.21118702  0.99492883  0.65686446    -0.29700
N489        N  0.23542796  0.00227198  0.70805400     0.15300
H490        H  0.17609989  0.98772063  0.63488743     0.17900
C491        C  0.27914015  0.00581164  0.72538437    -0.29700
H492        H  0.30603682  0.00976507  0.76536966     0.17900
H493        H  0.36832609  0.92202303  0.67667235     0.17900
H494        H  0.22986266  0.53897579  0.50951909     0.18000
H495        H  0.23324176  0.90367275  0.55670666     0.17900
O496        O  0.15856854  0.76354584  0.16973363    -0.56000
C497        C  0.25823171  0.75260930  0.33406762     0.76600
O498        O  0.13314038  0.79764574  0.29176715    -0.57200
C499        C  0.11691054  0.75676912  0.14180631     0.76600
C500        C  0.13026093  0.68682975  0.26146582     0.79000
Cd501      Cd  0.16346521  0.75830881  0.25343495     1.37500
O502        O  0.24619707  0.76232336  0.28854370    -0.56000
O503        O  0.15730330  0.69051577  0.24758869    -0.54800
C504        C  0.13403368  0.82771096  0.27032973     0.78900
O505        O  0.11877093  0.71654436  0.27210558    -0.57200
O506        O  0.22725769  0.74633109  0.34106417    -0.55600
O507        O  0.09821492  0.75088339  0.16588964    -0.55600
O508        O  0.14968296  0.82580290  0.24259253    -0.54800
O509        O  0.66081999  0.50755270  0.17151443    -0.56000
C510        C  0.75980685  0.00183012  0.33764268     0.76600
O511        O  0.62979881  0.54153502  0.29004720    -0.57200
C512        C  0.61846104  0.50820433  0.14331441     0.76600
C513        C  0.63538951  0.93083601  0.26341594     0.79000
Cd514      Cd  0.66505423  0.00348802  0.25286568     1.37500
O515        O  0.74849880  0.01147368  0.29228163    -0.56000
O516        O  0.66047482  0.93519282  0.24685210    -0.54800
C517        C  0.63426849  0.57269043  0.27348089     0.78900
O518        O  0.62368622  0.96029365  0.27429583    -0.57200
O519        O  0.72817721  0.99341668  0.34274552    -0.55600
O520        O  0.59941936  0.50752853  0.16752052    -0.55600
O521        O  0.65491692  0.57274669  0.25112140    -0.54800
C522        C  0.05914866  0.54809686  0.76840985     0.88300
C523        C  0.03150187  0.54597559  0.70912534    -0.51900
C524        C  0.03384042  0.01406136  0.68834882     0.11200
C525        C  0.06906082  0.98833685  0.73071030     0.22200
C526        C  0.04437095  0.01053035  0.78460863    -0.52700
C527        C  0.05137414  0.97938594  0.76543379     0.11300
C528        C  0.10772009  0.54367212  0.78519840    -0.52200
C529        C  0.11048205  0.01401177  0.76259114     0.11900
H530        H  0.00638340  0.56630147  0.68419709     0.16400
H531        H  0.07453245  0.96349298  0.71438385     0.02200
H532        H  0.03079253  0.00793965  0.80800355     0.16700
H533        H  0.13404626  0.56369609  0.80866729     0.16500
C534        C  0.89166795  0.99672887  0.47288618     0.31800
C535        C  0.80768888  0.00027983  0.38429521     0.31800
C536        C  0.88964800  0.01161344  0.42480521    -0.04400
C537        C  0.86656859  0.95965851  0.45271343    -0.05200
C538        C  0.86054946  0.52490354  0.47509043    -0.05000
C539        C  0.84610574  0.01345219  0.37841409    -0.04400
C540        C  0.82336076  0.96133837  0.40887117    -0.05200
C541        C  0.81799912  0.52666401  0.43096221    -0.05000
C542        C  0.85163270  0.00902174  0.33798080    -0.30400
N543        N  0.89549705  0.00495311  0.35778504     0.16100
C544        C  0.91833135  0.00504172  0.40982427    -0.30400
H545        H  0.95318177  0.99814004  0.43492111     0.18000
C546        C  0.80324145  0.92769397  0.40674837    -0.29400
N547        N  0.83349667  0.90584751  0.44718874     0.14800
C548        C  0.87271945  0.92468878  0.47349233    -0.29400
C549        C  0.79413021  0.54993884  0.44184531    -0.29700
N550        N  0.82220315  0.56235665  0.49094154     0.15300
H551        H  0.75939071  0.55723552  0.41642003     0.17900
C552        C  0.86264961  0.54742528  0.51126584    -0.29700
H553        H  0.89127848  0.55225086  0.55013196     0.17900
H554        H  0.90181131  0.91552671  0.50981443     0.17900
H555        H  0.82549066  0.00657442  0.29735364     0.18000
H556        H  0.76812268  0.92119027  0.38091687     0.17900
C557        C  0.58382650  0.78404048  0.30194924     0.88300
C558        C  0.60937215  0.78014072  0.36102768    -0.51900
C559        C  0.59808166  0.74965821  0.37822343     0.11200
C560        C  0.56166941  0.72526271  0.33491191     0.22200
C561        C  0.59205775  0.74667624  0.28507165    -0.52700
C562        C  0.58019488  0.71566813  0.30189863     0.11300
C563        C  0.53435335  0.78177425  0.28254200    -0.52200
C564        C  0.52292248  0.75213060  0.30136091     0.11900
H565        H  0.63627188  0.79895375  0.38729969     0.16400
H566        H  0.55205826  0.70105518  0.34958597     0.02200
H567        H  0.60737548  0.74398605  0.26374950     0.16700
H568        H  0.51108215  0.80370165  0.25935124     0.16500
C569        C  0.73937707  0.73582644  0.59283043     0.31800
C570        C  0.82351862  0.74517654  0.67881459     0.31800
C571        C  0.74195823  0.75563025  0.63763898    -0.04400
C572        C  0.76425791  0.69982218  0.62028065    -0.05200
C573        C  0.77225394  0.75855084  0.58628287    -0.05000
C574        C  0.78554326  0.76060508  0.68275170    -0.04400
C575        C  0.80847812  0.70445263  0.66251109    -0.05200
C576        C  0.81465743  0.76364414  0.62922361    -0.05000
C577        C  0.78058431  0.76174610  0.72405168    -0.30400
N578        N  0.73675772  0.75789126  0.70548931     0.16100
C579        C  0.71381666  0.75217617  0.65429020    -0.30400
H580        H  0.67934303  0.74294068  0.63169782     0.18000
C581        C  0.83069618  0.67398470  0.66128088    -0.29400
N582        N  0.80085359  0.65038043  0.62373824     0.14800
C583        C  0.75998913  0.66502403  0.60116958    -0.29400
C584        C  0.83630890  0.78821783  0.61496171    -0.29700
N585        N  0.80730112  0.79779724  0.56437844     0.15300
H586        H  0.86952072  0.79978654  0.63998009     0.17900
C587        C  0.76828923  0.77975294  0.54676727    -0.29700
H588        H  0.73857548  0.78291735  0.50822447     0.17900
H589        H  0.73083998  0.65437357  0.56605778     0.17900
H590        H  0.80694402  0.76262180  0.76470984     0.18000
H591        H  0.86645886  0.67212886  0.68046862     0.17900
O592        O  0.97128371  0.75248011  0.88847846    -0.56000
C593        C  0.87144180  0.75020876  0.72382948     0.76600
O594        O  0.00284712  0.80243477  0.77519182    -0.57200
C595        C  0.01282853  0.75956147  0.91640654     0.76600
C596        C  0.00070143  0.69043801  0.79752932     0.79000
Cd597      Cd  0.96571623  0.75968183  0.80443389     1.37500
O598        O  0.88304201  0.76427087  0.76681494    -0.56000
O599        O  0.97601545  0.69242696  0.81465627    -0.54800
C600        C  0.98918416  0.83219063  0.78279779     0.78900
O601        O  0.00950637  0.72092421  0.78339989    -0.57200
O602        O  0.90275985  0.74089443  0.71929645    -0.55600
O603        O  0.03096074  0.76762358  0.89222079    -0.55600
O604        O  0.96308991  0.82828688  0.79798944    -0.54800
C605        C  0.62283399  0.75571227  0.47030712     0.25400
C606        C  0.62632502  0.73816759  0.43286350    -0.22700
C607        C  0.66380910  0.71709979  0.44820679     0.20300
C608        C  0.69785452  0.71388592  0.50013671     0.25300
C609        C  0.69580389  0.73202604  0.53907280    -0.22600
C610        C  0.65754711  0.75351953  0.52276341     0.20200
F611        F  0.65590617  0.77705166  0.55509581    -0.12600
F612        F  0.58793678  0.77834940  0.45544292    -0.15000
F613        F  0.73629882  0.69875326  0.51068574    -0.15000
F614        F  0.67062192  0.70400841  0.41236644    -0.12600
C615        C  0.85648905  0.84835639  0.50027593     0.25400
C616        C  0.82395091  0.87555708  0.47087828    -0.22700
C617        C  0.78610301  0.87661484  0.47333381     0.20300
C618        C  0.78099698  0.85120718  0.50430740     0.25300
C619        C  0.81394411  0.82467750  0.53437455    -0.22600
C620        C  0.85174900  0.82344689  0.53225027     0.20200
F621        F  0.88368882  0.79778522  0.56057747    -0.12600
F622        F  0.89346634  0.84654560  0.49894326    -0.15000
F623        F  0.74460745  0.85361322  0.50673808    -0.15000
F624        F  0.75548413  0.90383009  0.44885214    -0.12600
C625        C  0.78760074  0.57247877  0.53890630     0.25400
C626        C  0.81270036  0.58603127  0.51982130    -0.22700
C627        C  0.83581136  0.61995839  0.53749039     0.20300
C628        C  0.83428677  0.64012689  0.57431036     0.25300
C629        C  0.80994985  0.62632298  0.59454306    -0.22600
C630        C  0.78622146  0.59253411  0.57610647     0.20200
F631        F  0.76107610  0.57954551  0.59358691    -0.12600
F632        F  0.76565014  0.53936738  0.52254678    -0.15000
F633        F  0.85453092  0.67406969  0.58805640    -0.15000
F634        F  0.85985788  0.63339286  0.51875730    -0.12600
C635        C  0.06711461  0.61860511  0.78031272     0.25400
C636        C  0.04845272  0.58450116  0.78413120    -0.22700
C637        C  0.01225914  0.58653263  0.79006486     0.20300
C638        C  0.99776282  0.62074104  0.79566837     0.25300
C639        C  0.01775806  0.65425263  0.79386363    -0.22600
C640        C  0.05266449  0.65274929  0.78622649     0.20200
F641        F  0.07216965  0.68445927  0.78283128    -0.12600
F642        F  0.09730802  0.61952320  0.76708247    -0.15000
F643        F  0.96198891  0.62098710  0.79954919    -0.15000
F644        F  0.98781979  0.55599392  0.78604215    -0.12600
C645        C  0.99394257  0.93670217  0.76439471     0.25400
C646        C  0.03546698  0.94146381  0.77002424    -0.22700
C647        C  0.06066626  0.90959976  0.77839428     0.20300
C648        C  0.04499356  0.87409757  0.78075746     0.25300
C649        C  0.00401664  0.86952754  0.77608155    -0.22600
C650        C  0.97868010  0.90127664  0.76788196     0.20200
F651        F  0.93859800  0.89805964  0.76231400    -0.12600
F652        F  0.96717322  0.96618697  0.75383505    -0.15000
F653        F  0.07098061  0.84430768  0.78980582    -0.15000
F654        F  0.10158634  0.91266229  0.78681010    -0.12600
C655        C  0.93410859  0.48238787  0.57004655     0.25400
C656        C  0.93467754  0.99548410  0.52749360    -0.22700
C657        C  0.97276718  0.01776114  0.54219581     0.20300
C658        C  0.00693475  0.02198932  0.59478514     0.25300
C659        C  0.00405621  0.00385562  0.63344799    -0.22600
C660        C  0.96952005  0.48468408  0.62145383     0.20200
F661        F  0.96430232  0.47017154  0.65861372    -0.12600
F662        F  0.89509097  0.46851701  0.56116056    -0.15000
F663        F  0.04127873  0.04594392  0.60821067    -0.15000
F664        F  0.97491696  0.03916298  0.50709425    -0.12600
C665        C  0.63109034  0.86114329  0.25405493     0.25400
C666        C  0.62098988  0.89338457  0.27040873    -0.22700
C667        C  0.59806468  0.88941167  0.29504317     0.20300
C668        C  0.58616190  0.85426929  0.30377863     0.25300
C669        C  0.59610027  0.82151748  0.28766718    -0.22600
C670        C  0.61894811  0.82571604  0.26248598     0.20200
F671        F  0.63139255  0.79627436  0.24715282    -0.12600
F672        F  0.65338020  0.86366896  0.23024640    -0.15000
F673        F  0.56577640  0.85231110  0.32982553    -0.15000
F674        F  0.58797392  0.91952186  0.31220547    -0.12600
C675        C  0.59956780  0.63470441  0.23997508     0.25400
C676        C  0.61610399  0.60734735  0.27910416    -0.22700
C677        C  0.61565497  0.61382605  0.32333174     0.20300
C678        C  0.60221282  0.64829846  0.33014055     0.25300
C679        C  0.58842605  0.67691257  0.29236373    -0.22600
C680        C  0.58521306  0.66876104  0.24607810     0.20200
F681        F  0.56767427  0.69360235  0.20612478    -0.12600
F682        F  0.59674156  0.62827198  0.19522396    -0.15000
F683        F  0.60481891  0.65373322  0.37488363    -0.15000
F684        F  0.63031179  0.58746924  0.36123416    -0.12600
C685        C  0.08591941  0.76481029  0.00291429     0.25400
C686        C  0.03941054  0.75824759  0.97409415    -0.22700
C687        C  0.01914685  0.74975352  0.00110934     0.20300
C688        C  0.04443223  0.74863673  0.05532536     0.25300
C689        C  0.09074781  0.75615492  0.08415227    -0.22600
C690        C  0.11120999  0.76365403  0.05713174     0.20200
F691        F  0.15584156  0.76987250  0.08301473    -0.12600
F692        F  0.10733927  0.77230310  0.97879282    -0.15000
F693        F  0.02322458  0.74010562  0.07943603    -0.15000
F694        F  0.97471261  0.74251347  0.97522654    -0.12600
C695        C  0.20118654  0.97441313  0.75060994     0.25400
C696        C  0.21568626  0.00615902  0.73687525    -0.22700
C697        C  0.20047036  0.04108824  0.73886005     0.20300
C698        C  0.16784900  0.04403265  0.74979205     0.25300
C699        C  0.15090308  0.01183966  0.76062344    -0.22600
C700        C  0.16969557  0.97728761  0.76331492     0.20200
F701        F  0.15660901  0.94596459  0.77634498    -0.12600
F702        F  0.21507279  0.94033106  0.74774320    -0.15000
F703        F  0.14164159  0.57495566  0.72863862    -0.15000
F704        F  0.20425289  0.56917187  0.70638959    -0.12600
C705        C  0.08182964  0.60977221  0.30200038     0.25400
C706        C  0.09128507  0.57733650  0.28475350    -0.22700
C707        C  0.11040319  0.58229893  0.25542418     0.20300
C708        C  0.12164570  0.61791767  0.24658686     0.25300
C709        C  0.11399534  0.64965505  0.26618853    -0.22600
C710        C  0.09232696  0.64522470  0.29220730     0.20200
F711        F  0.08223123  0.67515344  0.30966675    -0.12600
F712        F  0.06320405  0.60720645  0.32994123    -0.15000
F713        F  0.14008121  0.62119806  0.21845545    -0.15000
F714        F  0.11907096  0.55353101  0.23509534    -0.12600
C715        C  0.10223801  0.90352098  0.32735641     0.25400
C716        C  0.08770741  0.93212837  0.28950355    -0.22700
C717        C  0.08572346  0.92450533  0.24372457     0.20300
C718        C  0.10069735  0.89067489  0.23768973     0.25300
C719        C  0.11726662  0.86311403  0.27665042    -0.22600
C720        C  0.11706674  0.86960766  0.32106995     0.20200
F721        F  0.13291132  0.84365041  0.35959644    -0.12600
F722        F  0.10399118  0.90833974  0.37168908    -0.15000
F723        F  0.09815768  0.88465627  0.19301334    -0.15000
F724        F  0.06844774  0.94948857  0.20394168    -0.12600
C725        C  0.19825303  0.46653444  0.49589341     0.25400
C726        C  0.19208379  0.98037063  0.53612431    -0.22700
C727        C  0.15297124  0.00014522  0.52103539     0.20300
C728        C  0.11935860  0.00544615  0.46839160     0.25300
C729        C  0.12405516  0.99140964  0.42987163    -0.22600
C730        C  0.16433368  0.47198659  0.44432875     0.20200
F731        F  0.17161040  0.46275260  0.40733749    -0.12600
F732        F  0.23766084  0.45542327  0.50464068    -0.15000
F733        F  0.08411016  0.02721043  0.45496089    -0.15000
F734        F  0.14931650  0.01885940  0.55583558    -0.12600
C735        C  0.96989031  0.53991071  0.31677548     0.25400
C736        C  0.98055198  0.00528064  0.30447390    -0.22700
C737        C  0.95927858  0.97184457  0.30437730     0.20300
C738        C  0.92783128  0.97184829  0.31772970     0.25300
C739        C  0.91691494  0.00523032  0.33046770    -0.22600
C740        C  0.93828749  0.53992549  0.32928311     0.20200
F741        F  0.92985094  0.57209425  0.34431413    -0.12600
F742        F  0.99133891  0.57249622  0.32115033    -0.15000
F743        F  0.91023735  0.93917193  0.32164314    -0.15000
F744        F  0.97021972  0.93906116  0.29356242    -0.12600
C745        C  0.34847532  0.86257636  0.54264754     0.25400
C746        C  0.32072297  0.83129182  0.51991257    -0.22700
C747        C  0.29037134  0.82116491  0.53305740     0.20300
C748        C  0.28735795  0.84243227  0.56817768     0.25300
C749        C  0.31429533  0.87444094  0.59009048    -0.22600
C750        C  0.34505216  0.88423229  0.57707147     0.20200
F751        F  0.36963153  0.91607942  0.59483919    -0.12600
F752        F  0.37803444  0.87264048  0.53017623    -0.15000
F753        F  0.25724435  0.83250349  0.57983709    -0.15000
F754        F  0.26435465  0.79028875  0.51251757    -0.12600
C755        C  0.27527814  0.62886045  0.46542344     0.25400
C756        C  0.31039032  0.62338393  0.45868294    -0.22700
C757        C  0.33995673  0.59386431  0.48555573     0.20300
C758        C  0.33692636  0.57245279  0.52169922     0.25300
C759        C  0.30359184  0.57958501  0.53053162    -0.22600
C760        C  0.27201553  0.60711964  0.50103448     0.20200
F761        F  0.23885410  0.61381377  0.50826079    -0.12600
F762        F  0.24590021  0.65685837  0.44048008    -0.12400
F763        F  0.36606816  0.54444195  0.54758504    -0.15000
F764        F  0.37289269  0.58683154  0.47809276    -0.12600
C765        C  0.43688058  0.78495817  0.32520338     0.25400
C766        C  0.41464341  0.75179791  0.32228977    -0.22700
C767        C  0.42446296  0.71918600  0.30666846     0.20300
C768        C  0.45806404  0.71944877  0.29668970     0.25300
C769        C  0.48223411  0.75240388  0.30257010    -0.22600
C770        C  0.47056065  0.78533674  0.31598289     0.20200
F771        F  0.49471978  0.81719007  0.32566481    -0.12600
F772        F  0.42932494  0.81616857  0.34296005    -0.15000
F773        F  0.46831111  0.68727896  0.28366004    -0.15000
F774        F  0.40381825  0.68669467  0.30498618    -0.12600
C775        C  0.43171905  0.71883502  0.55991190     0.25400
C776        C  0.43382286  0.73555881  0.51931748    -0.22700
C777        C  0.47205139  0.75757038  0.53353657     0.20300
C778        C  0.50608535  0.76249868  0.58590338     0.25300
C779        C  0.50274057  0.74569108  0.62487643    -0.22600
C780        C  0.46645450  0.72254201  0.61136542     0.20200
F781        F  0.46154926  0.70748557  0.64846537    -0.12600
F782        F  0.39307065  0.70432037  0.55126632    -0.15000
F783        F  0.54052578  0.78618008  0.59870729    -0.15000
F784        F  0.47425383  0.77854734  0.49815489    -0.12600
C785        C  0.69505323  0.79461632  0.72869865     0.25400
C786        C  0.71519863  0.76088114  0.73235278    -0.22700
C787        C  0.70275673  0.72861106  0.74764685     0.20300
C788        C  0.66940365  0.72987019  0.75768245     0.25300
C789        C  0.64722816  0.76329703  0.75130603    -0.22600
C790        C  0.66111289  0.79593120  0.73751618     0.20200
F791        F  0.63901369  0.82839846  0.72722151    -0.12600
F792        F  0.70479385  0.82545180  0.71049159    -0.15000
F793        F  0.65765542  0.69802604  0.77142084    -0.15000
F794        F  0.72023089  0.69537982  0.74839270    -0.12600
C795        C  0.52366996  0.89878374  0.74803105     0.25400
C796        C  0.50993283  0.90194515  0.78228155    -0.22700
C797        C  0.51136097  0.87027088  0.81059458     0.20300
C798        C  0.52487758  0.83592288  0.80374529     0.25300
C799        C  0.53606236  0.83199904  0.76686482    -0.22600
C800        C  0.53680206  0.86454111  0.74075430     0.20200
F801        F  0.54968849  0.86315701  0.70705454    -0.12600
F802        F  0.52370279  0.92872192  0.72055236    -0.15000
F803        F  0.52878401  0.80769211  0.83553193    -0.15000
F804        F  0.50057270  0.87254592  0.84609083    -0.12600
C805        C  0.47906003  0.64808779  0.76112962     0.25400
C806        C  0.50620320  0.61698563  0.77304459    -0.22700
C807        C  0.54784044  0.62207065  0.77936207     0.20300
C808        C  0.56242852  0.65764742  0.77527637     0.25300
C809        C  0.53559112  0.68887009  0.76409139    -0.22600
C810        C  0.49341104  0.68347439  0.75648906     0.20200
F811        F  0.46502946  0.71225632  0.74262962    -0.12600
F812        F  0.43805615  0.64428001  0.75302663    -0.15000
F813        F  0.60361569  0.66153656  0.78437787    -0.15000
F814        F  0.57524686  0.59282237  0.79126219    -0.12600
C815        C  0.52027053  0.51179116  0.00144697     0.25400
C816        C  0.54153595  0.51041497  0.97463667    -0.22700
C817        C  0.58860607  0.50914447  0.00411574     0.20300
C818        C  0.61346142  0.50879386  0.05849601     0.25300
C819        C  0.59216177  0.50950918  0.08528922    -0.22600
C820        C  0.54512453  0.51122937  0.05584718     0.20200
F821        F  0.52276107  0.51227745  0.07953804    -0.12600
F822        F  0.47519374  0.51347565  0.97512968    -0.15000
F823        F  0.65856747  0.50751504  0.08482346    -0.15000
F824        F  0.61101029  0.50811131  0.98048106    -0.12600
loop_ 
_geom_bond_atom_site_label_1 
_geom_bond_atom_site_label_2 
_geom_bond_distance 
_geom_bond_site_symmetry_2 
_ccdc_geom_bond_type 
O1            C4   1.271       .  A
O1         Cd418   2.523       .  S
C2           O11   1.264       .  A
C2            O7   1.270       .  A
C2           C61   1.520       .  S
O3            C9   1.265       .  A
O3         Cd418   2.496       .  S
C4           O12   1.263       .  A
C4          C404   1.498       .  S
C5           O10   1.267       .  A
C5            O8   1.267       .  A
C5          C384   1.485       .  S
Cd6          O11   2.465       .  S
Cd6           O7   2.544       .  S
Cd6          O10   2.467       .  S
Cd6           O8   2.438       .  S
Cd6         O413   2.533       .  S
Cd6         O415   2.477       .  S
Cd6         O425   2.460       .  S
Cd6         O424   2.476       .  S
C9           O13   1.266       .  A
C9          C394   1.487       .  S
O12        Cd418   2.464       .  S
O13        Cd418   2.458       .  S
C14         C387   1.540       .  S
C14          C15   1.541       .  S
C14          C20   1.532       .  S
C14          C18   1.546       .  S
C15          H22   1.087       .  S
C15          C16   1.362       .  D
C16          C17   1.529       .  S
C16         C367   1.473       .  S
C17          C21   1.543       .  S
C17          C19   1.543       .  S
C17          H23   1.110       .  S
C18          H24   1.075       .  S
C18          C19   1.369       .  D
C19         C397   1.499       .  S
C20          H25   1.087       .  S
C20          C21   1.366       .  D
C21         C377   1.476       .  S
C26          C28   1.535       .  S
C26          C30   1.520       .  S
C26          C29   1.536       .  S
C26         C364   1.538       .  S
C27          C31   1.557       .  S
C27          C33   1.533       .  S
C27          C32   1.539       .  S
C27          C85   1.515       .  S
C28          C36   1.369       .  A
C28          C31   1.420       .  A
C29          C40   1.368       .  A
C29          C32   1.392       .  A
C30          C44   1.367       .  A
C30          C33   1.379       .  A
C31          C34   1.389       .  A
C32          C38   1.381       .  A
C33          C41   1.385       .  A
C34          N35   1.358       .  A
C34          H47   1.082       .  S
N35          C36   1.349       .  A
N35         C354   1.430       .  S
C36          H37   1.082       .  S
C38          N39   1.362       .  A
C38          H48   1.082       .  S
N39          C40   1.354       .  A
N39         C344   1.439       .  S
C40          H46   1.082       .  S
C41          N42   1.361       .  A
C41          H43   1.082       .  S
N42          C44   1.347       .  A
N42         C334   1.428       .  S
C44          H45   1.083       .  S
C49         C294   1.541       .  S
C49          C50   1.539       .  S
C49          C55   1.532       .  S
C49         C465   1.544       .  S
C50          H57   1.087       .  S
C50         C463   1.360       .  D
C51          C52   1.532       .  S
C51         C462   1.362       .  D
C51         C317   1.475       .  S
C52          C56   1.544       .  S
C52          C54   1.552       .  S
C52          H58   1.107       .  S
C53         C461   1.543       .  S
C53          H59   1.075       .  S
C53          C54   1.374       .  D
C54         C304   1.506       .  S
C55          H60   1.086       .  S
C55         C468   1.366       .  D
C56         C467   1.365       .  D
C56         C324   1.492   1_455  S
C61          C65   1.553       .  S
C61          C64   1.543       .  S
C61         C475   1.533       .  S
C62          C68   1.536       .  S
C62          C67   1.534       .  S
C62         C314   1.545       .  S
C62         C478   1.525       .  S
C63         C473   1.532   1_545  S
C63          C71   1.383       .  A
C63          C66   1.383       .  A
C64          C75   1.384       .  A
C64          C67   1.394       .  A
C65          C79   1.382       .  A
C65          C68   1.413       .  A
C66         C474   1.525   1_545  S
C66          C69   1.368       .  A
C67          C73   1.365       .  A
C68          C76   1.369       .  A
C69          N70   1.347       .  A
C69          H82   1.083       .  S
N70          C71   1.362       .  A
N70         C347   1.430       .  S
C71          H72   1.082       .  S
C73          N74   1.351       .  A
C73          H83   1.083       .  S
N74          C75   1.364       .  A
N74         C337   1.436       .  S
C75          H81   1.082       .  S
C76          N77   1.351       .  A
C76          H78   1.081       .  S
N77          C79   1.358       .  A
N77         C284   1.426       .  S
C79          H80   1.081       .  S
O84          C87   1.271       .  A
O84         Cd89   2.488       .  S
C85          O94   1.263       .  A
C85          O90   1.269       .  A
O86          C92   1.266       .  A
O86         Cd89   2.492       .  S
C87          O95   1.264       .  A
C87         C277   1.488       .  S
C88          O93   1.269       .  A
C88          O91   1.266       .  A
C88         C297   1.485       .  S
Cd89         O96   2.479       .  S
Cd89         O95   2.439       .  S
Cd89         O94   2.432       .  S
Cd89         O90   2.555       .  S
Cd89         O93   2.474       .  S
Cd89         O91   2.443       .  S
C92          O96   1.265       .  A
C92         C307   1.488       .  S
O97         C100   1.273       .  A
O97        Cd514   2.517       .  S
C98         O107   1.262       .  A
C98         O103   1.270       .  A
C98         C123   1.519       .  S
O99         C105   1.266       .  A
O99        Cd514   2.480       .  S
C100        O108   1.264       .  A
C100        C407   1.497       .  S
C101        O106   1.267       .  A
C101        O104   1.266       .  A
C101        C254   1.485       .  S
Cd102       O107   2.449       .  S
Cd102       O103   2.558       .  S
Cd102       O106   2.450       .  S
Cd102       O104   2.456       .  S
Cd102       O509   2.519       .  S
Cd102       O511   2.487       .  S
Cd102       O521   2.448       .  S
Cd102       O520   2.467       .  S
C105        O109   1.265       .  A
C105        C264   1.480       .  S
O108       Cd514   2.457       .  S
O109       Cd514   2.458       .  S
C110        C224   1.540       .  S
C110        C111   1.541       .  S
C110        C116   1.532       .  S
C110        C526   1.547       .  S
C111        H118   1.087   1_455  S
C111        C524   1.358       .  D
C112        C113   1.535       .  S
C112        C523   1.359       .  D
C112        C247   1.476       .  S
C113        C117   1.548       .  S
C113        C115   1.548       .  S
C113        H119   1.110       .  S
C114        C522   1.545       .  S
C114        H120   1.083       .  S
C114        C115   1.371       .  D
C115        C234   1.501       .  S
C116        H121   1.086       .  S
C116        C529   1.368       .  D
C117        C528   1.366       .  D
C117        C287   1.483       .  S
C122        C124   1.538       .  S
C122        C125   1.532       .  S
C122        C244   1.542       .  S
C122        C538   1.520       .  S
C123        C127   1.554       .  S
C123        C128   1.539       .  S
C123        C541   1.531       .  S
C124        C132   1.374       .  A
C124        C127   1.428       .  A
C125        C136   1.365       .  A
C125        C128   1.393       .  A
C126        C534   1.517   1_545  S
C126        C140   1.363       .  A
C126        C129   1.381       .  A
C127        C130   1.386       .  A
C128        C134   1.380       .  A
C129        C535   1.536       .  S
C129        C137   1.388       .  A
C130        N131   1.352       .  A
C130        H143   1.082       .  S
N131        C132   1.347       .  A
N131        C327   1.427       .  S
C132        H133   1.081       .  S
C134        N135   1.362       .  A
C134        H144   1.082       .  S
N135        C136   1.351       .  A
N135        C204   1.436       .  S
C136        H142   1.082       .  S
C137        N138   1.362       .  A
C137        H139   1.082       .  S
N138        C140   1.345       .  A
N138        C214   1.426       .  S
C140        H141   1.083       .  S
C145        C257   1.538       .  S
C145        C146   1.533       .  S
C145        C151   1.534       .  S
C145        C149   1.545       .  S
C146        H153   1.088       .  S
C146        C147   1.357       .  D
C147        C148   1.534       .  S
C147        C194   1.471       .  S
C148        C152   1.543       .  S
C148        C150   1.549       .  S
C148        H154   1.108       .  S
C149        H155   1.077       .  S
C149        C150   1.377       .  D
C150        C267   1.500       .  S
C151        H156   1.086       .  S
C151        C152   1.365       .  D
C152        C357   1.489       .  S
C157        C159   1.531       .  S
C157        C161   1.523       .  S
C157        C160   1.534       .  S
C157        C197   1.541       .  S
C158        C162   1.554       .  S
C158        C164   1.524       .  S
C158        C163   1.548       .  S
C158        C181   1.517       .  S
C159        C167   1.369       .  A
C159        C162   1.424       .  A
C160        C171   1.363       .  A
C160        C163   1.402       .  A
C161        C175   1.367       .  A
C161        C164   1.376       .  A
C162        C165   1.387       .  A
C163        C169   1.386       .  A
C164        C172   1.382       .  A
C165        N166   1.353       .  A
C165        H178   1.081       .  S
N166        C167   1.344       .  A
N166        C374   1.425       .  S
C167        H168   1.082       .  S
C169        N170   1.363       .  A
C169        H179   1.083       .  S
N170        C171   1.346       .  A
N170        C217   1.432       .  S
C171        H177   1.082       .  S
C172        N173   1.359       .  A
C172        H174   1.083       .  S
N173        C175   1.348       .  A
N173        C207   1.429       .  S
C175        H176   1.083       .  S
O180        C183   1.270   1_655  A
O180       Cd185   2.516       .  S
C181        O190   1.264       .  A
C181        O186   1.269       .  A
O182        C188   1.267   1_455  A
O182       Cd185   2.494   1_455  S
C183        O191   1.262       .  A
C183        C274   1.491       .  S
C184        O189   1.269       .  A
C184        O187   1.265   1_455  A
C184        C227   1.487       .  S
Cd185       O192   2.486       .  S
Cd185       O191   2.432   1_655  S
Cd185       O190   2.448       .  S
Cd185       O186   2.546       .  S
Cd185       O189   2.476   1_655  S
Cd185       O187   2.451       .  S
C188        O192   1.267       .  A
C188        C237   1.493   1_655  S
C193        C194   1.400       .  A
C193        C198   1.404       .  A
C193        F200   1.358       .  S
C194        C195   1.395       .  A
C195        C196   1.389       .  A
C195        F202   1.359       .  S
C196        C197   1.423       .  A
C196        F201   1.359       .  S
C197        C198   1.418       .  A
C198        F199   1.352       .  S
C203        C204   1.410       .  A
C203        C208   1.395       .  A
C203        F210   1.357       .  S
C204        C205   1.408       .  A
C205        C206   1.393       .  A
C205        F212   1.357       .  S
C206        C207   1.406       .  A
C206        F211   1.358       .  S
C207        C208   1.399       .  A
C208        F209   1.357       .  S
C213        C214   1.400       .  A
C213        C218   1.398       .  A
C213        F220   1.357       .  S
C214        C215   1.403       .  A
C215        C216   1.393       .  A
C215        F222   1.357       .  S
C216        C217   1.406       .  A
C216        F221   1.357       .  S
C217        C218   1.407       .  A
C218        F219   1.357       .  S
C223        C224   1.417       .  A
C223        C228   1.397       .  A
C223        F230   1.359       .  S
C224        C225   1.416       .  A
C225        C226   1.401       .  A
C225        F232   1.352       .  S
C226        C227   1.408       .  A
C226        F231   1.358       .  S
C227        C228   1.404       .  A
C228        F229   1.358       .  S
C233        C234   1.412   1_655  A
C233        C238   1.402       .  A
C233        F240   1.358       .  S
C234        C235   1.407       .  A
C235        C236   1.405       .  A
C235        F242   1.353       .  S
C236        C237   1.410       .  A
C236        F241   1.358       .  S
C237        C238   1.408   1_455  A
C238        F239   1.358       .  S
C243        C248   1.388       .  A
C243        C656   1.421       .  A
C243        F250   1.358       .  S
C244        C245   1.417       .  A
C244        C655   1.421       .  A
C245        C246   1.408   1_655  A
C245        F252   1.354       .  S
C246        C247   1.404       .  A
C246        F251   1.358       .  S
C247        C660   1.393   1_455  A
C248        C659   1.392   1_665  A
C248        F249   1.356       .  S
C253        C254   1.408       .  A
C253        C258   1.403       .  A
C253        F260   1.358       .  S
C254        C255   1.403       .  A
C255        C256   1.393       .  A
C255        F262   1.358       .  S
C256        C257   1.417       .  A
C256        F261   1.357       .  S
C257        C258   1.415       .  A
C258        F259   1.352       .  S
C263        C264   1.405       .  A
C263        C268   1.399       .  A
C263        F270   1.358       .  S
C264        C265   1.404       .  A
C265        C266   1.401       .  A
C265        F272   1.358       .  S
C266        C267   1.414       .  A
C266        F271   1.355       .  S
C267        C268   1.412       .  A
C268        F269   1.358       .  S
C273        C274   1.413   1_554  A
C273        C278   1.399       .  A
C273        F280   1.358   1_554  S
C274        C275   1.408   1_556  A
C275        C276   1.402       .  A
C275        F282   1.358   1_454  S
C276        C277   1.412       .  A
C276        F281   1.358       .  S
C277        C278   1.405       .  A
C278        F279   1.358       .  S
C283        C284   1.401       .  A
C283        C288   1.400       .  A
C283        F290   1.357       .  S
C284        C285   1.399       .  A
C285        C286   1.394       .  A
C285        F704   1.358       .  S
C286        C287   1.410       .  A
C286        F703   1.358       .  S
C287        C288   1.405       .  A
C288        F289   1.353       .  S
F291        C698   1.357       .  S
F292        C697   1.357       .  S
C293        C294   1.418       .  A
C293        C298   1.396       .  A
C293        F300   1.357       .  S
C294        C295   1.416       .  A
C295        C296   1.401       .  A
C295        F302   1.351       .  S
C296        C297   1.407       .  A
C296        F301   1.358       .  S
C297        C298   1.402       .  A
C298        F299   1.358       .  S
C303        C304   1.413       .  A
C303        C308   1.403       .  A
C303        F310   1.355       .  S
C304        C305   1.414       .  A
C305        C306   1.401       .  A
C305        F312   1.358       .  S
C306        C307   1.407       .  A
C306        F311   1.358       .  S
C307        C308   1.406       .  A
C308        F309   1.358       .  S
C313        C318   1.387       .  A
C313        C726   1.425       .  A
C313        F320   1.358       .  S
C314        C315   1.420       .  A
C314        C725   1.425       .  A
C315        C316   1.408       .  A
C315        F322   1.351       .  S
C316        C317   1.401       .  A
C316        F321   1.358       .  S
C317        C730   1.392       .  A
C318        C729   1.391       .  A
C318        F319   1.359       .  S
C323        C328   1.389       .  A
C323        C736   1.414       .  A
C323        F330   1.356       .  S
C324        C325   1.410       .  A
C324        C735   1.415       .  A
C325        C326   1.404       .  A
C325        F332   1.357       .  S
C326        C327   1.402       .  A
C326        F331   1.357       .  S
C327        C740   1.395       .  A
C328        C739   1.394       .  A
C328        F329   1.358       .  S
C333        C334   1.404       .  A
C333        C338   1.396       .  A
C333        F340   1.358       .  S
C334        C335   1.399       .  A
C335        C336   1.396       .  A
C335        F342   1.357       .  S
C336        C337   1.409       .  A
C336        F341   1.357       .  S
C337        C338   1.408       .  A
C338        F339   1.357       .  S
C343        C344   1.410       .  A
C343        C348   1.396       .  A
C343        F350   1.357       .  S
C344        C345   1.409       .  A
C345        C346   1.396       .  A
C345        F352   1.357       .  S
C346        C347   1.399       .  A
C346        F351   1.357       .  S
C347        C348   1.404       .  A
C348        F349   1.358       .  S
C353        C354   1.398       .  A
C353        C358   1.391       .  A
C353        F360   1.358       .  S
C354        C355   1.404       .  A
C355        C356   1.406       .  A
C355        F362   1.357       .  S
C356        C357   1.408       .  A
C356        F361   1.357       .  S
C357        C358   1.411       .  A
C358        F359   1.356       .  S
C363        C364   1.422       .  A
C363        C368   1.387       .  A
C363        F370   1.357       .  S
C364        C365   1.418       .  A
C365        C366   1.406       .  A
C365        F372   1.354       .  S
C366        C367   1.402       .  A
C366        F371   1.358       .  S
C367        C368   1.391       .  A
C368        F369   1.357       .  S
C373        C374   1.400       .  A
C373        C378   1.389       .  A
C373        F380   1.358       .  S
C374        C375   1.402       .  A
C375        C376   1.402       .  A
C375        F382   1.357       .  S
C376        C377   1.405       .  A
C376        F381   1.356       .  S
C377        C378   1.406       .  A
C378        F379   1.358       .  S
C383        C384   1.405       .  A
C383        C388   1.398       .  A
C383        F390   1.358       .  S
C384        C385   1.405       .  A
C385        C386   1.397       .  A
C385        F392   1.358       .  S
C386        C387   1.417       .  A
C386        F391   1.351       .  S
C387        C388   1.417       .  A
C388        F389   1.358       .  S
C393        C394   1.405       .  A
C393        C398   1.396       .  A
C393        F400   1.358       .  S
C394        C395   1.410       .  A
C395        C396   1.405       .  A
C395        F402   1.358       .  S
C396        C397   1.409       .  A
C396        F401   1.355       .  S
C397        C398   1.413       .  A
C398        F399   1.358       .  S
C403        C404   1.408       .  A
C403        C408   1.405   1_556  A
C403        F410   1.358       .  S
C404        C405   1.414   1_556  A
C405        C406   1.404       .  A
C405        F412   1.358   1_554  S
C406        C407   1.407       .  A
C406        F411   1.358   1_545  S
C407        C408   1.414       .  A
C408        F409   1.358       .  S
O413        C416   1.271       .  A
C414        O423   1.263       .  A
C414        O419   1.269   1_565  A
C414        C473   1.519       .  S
O415        C421   1.265       .  A
C416        O424   1.263       .  A
C416        C816   1.501       .  S
C417        O422   1.267       .  A
C417        O420   1.267       .  A
C417        C796   1.483       .  S
Cd418       O423   2.459   1_545  S
Cd418       O419   2.550       .  S
Cd418       O422   2.452   1_545  S
Cd418       O420   2.454   1_545  S
C421        O425   1.266       .  A
C421        C806   1.484       .  S
C426        C799   1.538       .  S
C426        C427   1.542       .  S
C426        C432   1.529       .  S
C426        C430   1.543       .  S
C427        H434   1.087       .  S
C427        C428   1.361       .  D
C428        C429   1.528       .  S
C428        C779   1.472       .  S
C429        C433   1.547       .  S
C429        C431   1.546       .  S
C429        H435   1.110       .  S
C430        H436   1.078       .  S
C430        C431   1.370       .  D
C431        C809   1.495       .  S
C432        H437   1.086       .  S
C432        C433   1.367       .  D
C433        C789   1.489       .  S
C438        C440   1.534       .  S
C438        C442   1.521       .  S
C438        C441   1.534       .  S
C438        C776   1.535       .  S
C439        C443   1.554       .  S
C439        C445   1.534       .  S
C439        C444   1.538       .  S
C439        C497   1.513       .  S
C440        C448   1.369       .  A
C440        C443   1.421       .  A
C441        C452   1.367       .  A
C441        C444   1.390       .  A
C442        C456   1.368       .  A
C442        C445   1.381       .  A
C443        C446   1.387       .  A
C444        C450   1.380       .  A
C445        C453   1.385       .  A
C446        N447   1.356       .  A
C446        H459   1.082       .  S
N447        C448   1.347       .  A
N447        C766   1.427       .  S
C448        H449   1.082       .  S
C450        N451   1.363       .  A
C450        H460   1.082       .  S
N451        C452   1.354       .  A
N451        C756   1.438       .  S
C452        H458   1.082       .  S
C453        N454   1.361       .  A
C453        H455   1.082       .  S
N454        C456   1.347       .  A
N454        C746   1.428       .  S
C456        H457   1.083       .  S
C461        C706   1.542       .  S
C461        C462   1.541       .  S
C461        C467   1.532       .  S
C462        H469   1.087       .  S
C463        C464   1.531   1_545  S
C463        C729   1.472   1_545  S
C464        C468   1.542   1_565  S
C464        C466   1.550       .  S
C464        H470   1.106       .  S
C465        H471   1.075       .  S
C465        C466   1.375   1_545  D
C466        C716   1.505       .  S
C467        H472   1.086       .  S
C468        C736   1.490   1_455  S
C473        C477   1.552   1_565  S
C473        C476   1.541       .  S
C474        C480   1.538       .  S
C474        C479   1.534       .  S
C474        C726   1.541       .  S
C475        C483   1.385       .  A
C475        C478   1.384       .  A
C476        C487   1.382       .  A
C476        C479   1.392       .  A
C477        C491   1.381       .  A
C477        C480   1.415   1_545  A
C478        C481   1.366       .  A
C479        C485   1.367       .  A
C480        C488   1.369       .  A
C481        N482   1.346       .  A
C481        H494   1.083       .  S
N482        C483   1.362       .  A
N482        C759   1.430       .  S
C483        H484   1.082       .  S
C485        N486   1.351       .  A
C485        H495   1.083       .  S
N486        C487   1.363       .  A
N486        C749   1.436       .  S
C487        H493   1.082       .  S
C488        N489   1.352   1_565  A
C488        H490   1.081       .  S
N489        C491   1.357       .  A
N489        C696   1.426       .  S
C491        H492   1.082       .  S
O496        C499   1.272       .  A
O496       Cd501   2.504       .  S
C497        O506   1.263       .  A
C497        O502   1.269       .  A
O498        C504   1.265       .  A
O498       Cd501   2.486       .  S
C499        O507   1.263       .  A
C499        C689   1.491       .  S
C500        O505   1.268       .  A
C500        O503   1.266       .  A
C500        C709   1.484       .  S
Cd501       O508   2.467       .  S
Cd501       O507   2.432       .  S
Cd501       O506   2.437       .  S
Cd501       O502   2.546       .  S
Cd501       O505   2.461       .  S
Cd501       O503   2.445       .  S
C504        O508   1.265       .  A
C504        C719   1.483       .  S
O509        C512   1.272       .  A
C510        O519   1.262   1_545  A
C510        O515   1.271       .  A
C510        C535   1.521       .  S
O511        C517   1.266       .  A
C512        O520   1.265       .  A
C512        C819   1.500       .  S
C513        O518   1.268       .  A
C513        O516   1.267       .  A
C513        C666   1.486       .  S
Cd514       O519   2.461   1_545  S
Cd514       O515   2.554       .  S
Cd514       O518   2.452   1_545  S
Cd514       O516   2.462   1_545  S
C517        O521   1.265       .  A
C517        C676   1.478       .  S
C522        C636   1.536       .  S
C522        C523   1.535       .  S
C522        C528   1.535       .  S
C523        H530   1.087       .  S
C524        C525   1.532   1_545  S
C524        C659   1.475       .  S
C525        C529   1.550   1_565  S
C525        C527   1.549       .  S
C525        H531   1.110       .  S
C526        H532   1.077       .  S
C526        C527   1.371   1_545  D
C527        C646   1.501       .  S
C528        H533   1.085       .  S
C529        C699   1.493       .  S
C534        C536   1.536   1_565  S
C534        C537   1.531       .  S
C534        C656   1.539       .  S
C535        C539   1.554       .  S
C535        C540   1.541   1_545  S
C536        C544   1.372       .  A
C536        C539   1.428       .  A
C537        C548   1.365       .  A
C537        C540   1.391       .  A
C538        C552   1.365       .  A
C538        C541   1.381       .  A
C539        C542   1.386       .  A
C540        C546   1.380       .  A
C541        C549   1.385       .  A
C542        N543   1.352       .  A
C542        H555   1.082       .  S
N543        C544   1.346       .  A
N543        C739   1.425       .  S
C544        H545   1.081   1_545  S
C546        N547   1.364       .  A
C546        H556   1.082       .  S
N547        C548   1.352       .  A
N547        C616   1.438       .  S
C548        H554   1.081       .  S
C549        N550   1.359       .  A
C549        H551   1.082       .  S
N550        C552   1.346       .  A
N550        C626   1.424       .  S
C552        H553   1.083       .  S
C557        C669   1.539       .  S
C557        C558   1.534       .  S
C557        C563   1.534       .  S
C557        C561   1.545       .  S
C558        H565   1.087       .  S
C558        C559   1.358       .  D
C559        C560   1.532       .  S
C559        C606   1.469       .  S
C560        C564   1.541       .  S
C560        C562   1.546       .  S
C560        H566   1.108       .  S
C561        H567   1.076       .  S
C561        C562   1.377       .  D
C562        C679   1.501       .  S
C563        H568   1.086       .  S
C563        C564   1.365       .  D
C564        C769   1.486       .  S
C569        C571   1.531       .  S
C569        C573   1.524       .  S
C569        C572   1.538       .  S
C569        C609   1.539       .  S
C570        C574   1.553       .  S
C570        C576   1.525       .  S
C570        C575   1.546       .  S
C570        C593   1.515       .  S
C571        C579   1.370       .  A
C571        C574   1.423       .  A
C572        C583   1.366       .  A
C572        C575   1.404       .  A
C573        C587   1.368       .  A
C573        C576   1.375       .  A
C574        C577   1.388       .  A
C575        C581   1.385       .  A
C576        C584   1.384       .  A
C577        N578   1.353       .  A
C577        H590   1.081       .  S
N578        C579   1.342       .  A
N578        C786   1.424       .  S
C579        H580   1.083       .  S
C581        N582   1.360       .  A
C581        H591   1.083       .  S
N582        C583   1.347       .  A
N582        C629   1.432       .  S
C583        H589   1.082       .  S
C584        N585   1.360       .  A
C584        H586   1.083       .  S
N585        C587   1.349       .  A
N585        C619   1.432       .  S
C587        H588   1.083       .  S
O592        C595   1.270   1_655  A
O592       Cd597   2.507       .  S
C593        O602   1.264       .  A
C593        O598   1.269       .  A
O594        C600   1.267   1_455  A
O594       Cd597   2.480   1_455  S
C595        O603   1.262       .  A
C595        C686   1.491       .  S
C596        O601   1.269       .  A
C596        O599   1.266   1_455  A
C596        C639   1.484       .  S
Cd597       O604   2.471       .  S
Cd597       O603   2.439   1_655  S
Cd597       O602   2.441       .  S
Cd597       O598   2.535       .  S
Cd597       O601   2.476   1_655  S
Cd597       O599   2.442       .  S
C600        O604   1.266       .  A
C600        C649   1.486   1_655  S
C605        C606   1.399       .  A
C605        C610   1.402       .  A
C605        F612   1.358       .  S
C606        C607   1.394       .  A
C607        C608   1.387       .  A
C607        F614   1.358       .  S
C608        C609   1.422       .  A
C608        F613   1.358       .  S
C609        C610   1.418       .  A
C610        F611   1.352       .  S
C615        C616   1.412       .  A
C615        C620   1.398       .  A
C615        F622   1.357       .  S
C616        C617   1.407       .  A
C617        C618   1.392       .  A
C617        F624   1.357       .  S
C618        C619   1.406       .  A
C618        F623   1.358       .  S
C619        C620   1.400       .  A
C620        F621   1.357       .  S
C625        C626   1.400       .  A
C625        C630   1.398       .  A
C625        F632   1.357       .  S
C626        C627   1.401       .  A
C627        C628   1.392       .  A
C627        F634   1.357       .  S
C628        C629   1.407       .  A
C628        F633   1.357       .  S
C629        C630   1.406       .  A
C630        F631   1.357       .  S
C635        C636   1.419       .  A
C635        C640   1.399       .  A
C635        F642   1.357       .  S
C636        C637   1.416       .  A
C637        C638   1.398   1_455  A
C637        F644   1.355   1_455  S
C638        C639   1.406   1_655  A
C638        F643   1.358       .  S
C639        C640   1.404       .  A
C640        F641   1.358       .  S
C645        C646   1.413   1_655  A
C645        C650   1.402       .  A
C645        F652   1.358       .  S
C646        C647   1.406       .  A
C647        C648   1.401       .  A
C647        F654   1.349       .  S
C648        C649   1.406       .  A
C648        F653   1.358       .  S
C649        C650   1.407   1_455  A
C650        F651   1.358       .  S
C655        C660   1.389       .  A
C655        F662   1.358       .  S
C656        C657   1.416   1_565  A
C657        C658   1.407   1_655  A
C657        F664   1.354       .  S
C658        C659   1.404       .  A
C658        F663   1.358       .  S
C660        F661   1.357       .  S
C665        C666   1.408       .  A
C665        C670   1.403       .  A
C665        F672   1.358       .  S
C666        C667   1.403       .  A
C667        C668   1.394       .  A
C667        F674   1.358       .  S
C668        C669   1.417       .  A
C668        F673   1.358       .  S
C669        C670   1.416       .  A
C670        F671   1.352       .  S
C675        C676   1.403       .  A
C675        C680   1.397       .  A
C675        F682   1.358       .  S
C676        C677   1.404       .  A
C677        C678   1.403       .  A
C677        F684   1.358       .  S
C678        C679   1.415       .  A
C678        F683   1.355       .  S
C679        C680   1.411       .  A
C680        F681   1.357       .  S
C685        C686   1.413   1_554  A
C685        C690   1.401       .  A
C685        F692   1.358   1_554  S
C686        C687   1.407   1_556  A
C687        C688   1.401       .  A
C687        F694   1.358   1_454  S
C688        C689   1.413       .  A
C688        F693   1.358       .  S
C689        C690   1.406       .  A
C690        F691   1.358       .  S
C695        C696   1.398   1_565  A
C695        C700   1.397       .  A
C695        F702   1.357       .  S
C696        C697   1.398       .  A
C697        C698   1.397       .  A
C698        C699   1.415       .  A
C699        C700   1.407   1_545  A
C700        F701   1.349       .  S
C705        C706   1.418       .  A
C705        C710   1.396       .  A
C705        F712   1.357       .  S
C706        C707   1.417       .  A
C707        C708   1.401       .  A
C707        F714   1.351       .  S
C708        C709   1.406       .  A
C708        F713   1.358       .  S
C709        C710   1.402       .  A
C710        F711   1.358       .  S
C715        C716   1.414       .  A
C715        C720   1.402       .  A
C715        F722   1.355       .  S
C716        C717   1.413       .  A
C717        C718   1.399       .  A
C717        F724   1.358       .  S
C718        C719   1.405       .  A
C718        F723   1.358       .  S
C719        C720   1.405       .  A
C720        F721   1.358       .  S
C725        C730   1.387       .  A
C725        F732   1.357       .  S
C726        C727   1.418   1_565  A
C727        C728   1.407       .  A
C727        F734   1.351       .  S
C728        C729   1.401   1_545  A
C728        F733   1.358       .  S
C730        F731   1.358       .  S
C735        C740   1.390       .  A
C735        F742   1.356       .  S
C736        C737   1.410   1_545  A
C737        C738   1.403       .  A
C737        F744   1.357       .  S
C738        C739   1.402   1_565  A
C738        F743   1.357       .  S
C740        F741   1.358       .  S
C745        C746   1.403       .  A
C745        C750   1.395       .  A
C745        F752   1.357       .  S
C746        C747   1.400       .  A
C747        C748   1.397       .  A
C747        F754   1.357       .  S
C748        C749   1.408       .  A
C748        F753   1.357       .  S
C749        C750   1.408       .  A
C750        F751   1.357       .  S
C755        C756   1.409       .  A
C755        C760   1.394       .  A
C755        F762   1.357       .  S
C756        C757   1.409       .  A
C757        C758   1.397       .  A
C757        F764   1.357       .  S
C758        C759   1.400       .  A
C758        F763   1.357       .  S
C759        C760   1.404       .  A
C760        F761   1.358       .  S
C765        C766   1.397       .  A
C765        C770   1.390       .  A
C765        F772   1.358       .  S
C766        C767   1.403       .  A
C767        C768   1.404       .  A
C767        F774   1.357       .  S
C768        C769   1.408       .  A
C768        F773   1.357       .  S
C769        C770   1.411       .  A
C770        F771   1.357       .  S
C775        C776   1.421       .  A
C775        C780   1.387       .  A
C775        F782   1.357       .  S
C776        C777   1.418       .  A
C777        C778   1.405       .  A
C777        F784   1.354       .  S
C778        C779   1.401       .  A
C778        F783   1.358       .  S
C779        C780   1.392       .  A
C780        F781   1.356       .  S
C785        C786   1.398       .  A
C785        C790   1.393       .  A
C785        F792   1.358       .  S
C786        C787   1.399       .  A
C787        C788   1.398       .  A
C787        F794   1.357       .  S
C788        C789   1.407       .  A
C788        F793   1.351       .  S
C789        C790   1.413       .  A
C790        F791   1.358       .  S
C795        C796   1.404       .  A
C795        C800   1.396       .  A
C795        F802   1.358       .  S
C796        C797   1.406       .  A
C797        C798   1.400       .  A
C797        F804   1.358       .  S
C798        C799   1.416       .  A
C798        F803   1.353       .  S
C799        C800   1.416       .  A
C800        F801   1.359       .  S
C805        C806   1.405       .  A
C805        C810   1.397       .  A
C805        F812   1.358       .  S
C806        C807   1.408       .  A
C807        C808   1.402       .  A
C807        F814   1.358       .  S
C808        C809   1.406       .  A
C808        F813   1.352       .  S
C809        C810   1.411       .  A
C810        F811   1.358       .  S
C815        C816   1.409   1_554  A
C815        C820   1.406       .  A
C815        F822   1.358   1_554  S
C816        C817   1.414   1_556  A
C817        C818   1.405       .  A
C817        F824   1.358   1_554  S
C818        C819   1.408       .  A
C818        F823   1.358       .  S
C819        C820   1.414       .  A
C820        F821   1.358       .  S
