geometry optimzed in LAMMPS
_audit_creation_date              2020-12-01 
_audit_creation_method            'lammps2cif' 
_symmetry_space_group_name_H-M    'P1' 
_symmetry_Int_Tables_number       1 
_symmetry_cell_setting            triclinic 
loop_ 
_symmetry_equiv_pos_as_xyz 
  x,y,z 
_cell_length_a                    42.44774521 
_cell_length_b                    42.753303082774124 
_cell_length_c                    47.36432380010348 
_cell_angle_alpha                 90.45959434170955 
_cell_angle_beta                  89.86553180862444 
_cell_angle_gamma                 90.72692990916275 
loop_ 
_atom_site_label 
_atom_site_type_symbol 
_atom_site_fract_x 
_atom_site_fract_y 
_atom_site_fract_z 
_atom_site_charge 
O1          O  0.32522432  0.24745684  0.58047228    -0.55300
C2          C  0.34196104  0.33263095  0.53737458     0.77300
O3          O  0.30067354  0.33954224  0.61696980    -0.56500
C4          C  0.31562349  0.24080037  0.60509703     0.77300
C5          C  0.39753749  0.31653114  0.61688031     0.79700
Cd6        Cd  0.33681626  0.30339410  0.59138924     1.37500
O7          O  0.34141136  0.30297372  0.53875374    -0.55300
O8          O  0.39493051  0.29989432  0.59474611    -0.54100
C9          C  0.27850928  0.33522544  0.59937080     0.79600
O10         O  0.37224896  0.32654202  0.62772230    -0.56500
O11         O  0.34318588  0.34770458  0.56037856    -0.54900
O12         O  0.31876984  0.26198424  0.62374407    -0.54900
O13         O  0.28271620  0.31516410  0.58012768    -0.54100
C14         C  0.17631815  0.45477175  0.53686633     0.32500
C15         C  0.13201742  0.43536479  0.57558851     0.32500
C16         C  0.14423342  0.44466159  0.52446935    -0.03700
C17         C  0.18502856  0.42627865  0.55455553    -0.04500
C18         C  0.16724340  0.47873456  0.55927378    -0.04300
C19         C  0.12117929  0.43508717  0.54424031    -0.03700
C20         C  0.16284492  0.41682837  0.57442219    -0.04500
C21         C  0.14497201  0.46946100  0.57956011    -0.04300
C22         C  0.10071200  0.41496760  0.52983644    -0.29700
N23         N  0.11118569  0.41114079  0.50314507     0.16800
C24         C  0.13779987  0.42823843  0.49988803    -0.29700
H25         H  0.15370361  0.42549525  0.48216168     0.18700
C26         C  0.17660651  0.39412885  0.59075520    -0.28700
N27         N  0.20610199  0.38943805  0.58083031     0.15500
C28         C  0.21143288  0.40845170  0.55860113    -0.28700
C29         C  0.14889382  0.99266047  0.59785862    -0.29000
N30         N  0.16879604  0.01586073  0.58927980     0.16000
H31         H  0.13578148  0.99392091  0.61731008     0.18600
C32         C  0.18373783  0.00663668  0.56555236    -0.29000
H33         H  0.20210826  0.01981748  0.55488501     0.18600
H34         H  0.23343513  0.40980224  0.54707983     0.18600
H35         H  0.08172024  0.40121095  0.53884055     0.18700
H36         H  0.16647486  0.38283654  0.60909015     0.18600
C37         C  0.27298707  0.45931135  0.45224812     0.32500
C38         C  0.31453546  0.44109599  0.41121199     0.32500
C39         C  0.29275622  0.43067108  0.45909669    -0.03700
C40         C  0.25842310  0.45006618  0.42349989    -0.04500
C41         C  0.29822668  0.48394904  0.44410174    -0.04300
C42         C  0.31405128  0.42182506  0.43849043    -0.03700
C43         C  0.27963851  0.44196849  0.40234596    -0.04500
C44         C  0.31971728  0.47495532  0.42226689    -0.04300
C45         C  0.33059605  0.39669461  0.44873060    -0.29700
N46         N  0.31949008  0.39009508  0.47483048     0.16800
C47         C  0.29629620  0.41040098  0.48139225    -0.29700
H48         H  0.28337668  0.41044884  0.50110930     0.18700
C49         C  0.26251500  0.42896682  0.38030767    -0.28700
N50         N  0.23214880  0.42671270  0.38841801     0.15500
C51         C  0.22946764  0.43837691  0.41487814    -0.28700
C52         C  0.32461218  0.00328591  0.40152608    -0.29000
N53         N  0.30807335  0.02692107  0.41335213     0.16000
H54         H  0.33360566  0.00368941  0.38012209     0.18600
C55         C  0.29382994  0.01629102  0.43682087    -0.29000
H56         H  0.27493327  0.02842728  0.44751926     0.18600
H57         H  0.20877255  0.43504096  0.42795097     0.18600
H58         H  0.34950987  0.38444647  0.43820374     0.18700
H59         H  0.27175391  0.41836841  0.36124782     0.18600
O60         O  0.13797221  0.27125342  0.39945709    -0.55300
C61         C  0.10273616  0.35151829  0.43935161     0.77300
O62         O  0.14139117  0.36418249  0.35799491    -0.56500
C63         C  0.14223173  0.26147631  0.37442897     0.77300
C64         C  0.05556703  0.33396909  0.35886893     0.79700
Cd65       Cd  0.11483577  0.32260189  0.38545475     1.37500
O66         O  0.09882691  0.32216246  0.43667194    -0.55300
O67         O  0.05701035  0.31846067  0.38147531    -0.54100
C68         C  0.16634063  0.36327871  0.37248249     0.79600
O69         O  0.08135799  0.34168353  0.34731620    -0.56500
O70         O  0.11153240  0.36633855  0.41779982    -0.54900
O71         O  0.13128355  0.27830466  0.35502831    -0.54900
O72         O  0.16827839  0.34218347  0.39088011    -0.54100
O73         O  0.21066406  0.19054091  0.35276375    -0.55300
C74         C  0.28590356  0.16800470  0.30274433     0.77300
O75         O  0.31044921  0.19411818  0.38619487    -0.56500
C76         C  0.20599656  0.19913842  0.37805770     0.77300
C77         C  0.27936014  0.10937343  0.38174415     0.79700
Cd78       Cd  0.26511887  0.17072171  0.36060130     1.37500
O79         O  0.25732060  0.16184204  0.30852221    -0.55300
O80         O  0.26077595  0.11252699  0.36112913    -0.54100
C81         C  0.30854796  0.21997469  0.37354524     0.79600
O82         O  0.28905474  0.13411330  0.39376592    -0.56500
O83         O  0.30401889  0.17377488  0.32320433    -0.54900
O84         O  0.22689094  0.19164030  0.39564930    -0.54900
O85         O  0.28561911  0.22354533  0.35699662    -0.54100
C86         C  0.40282945  0.22916867  0.20235112     0.32500
C87         C  0.38453268  0.18207836  0.16617678     0.32500
C88         C  0.37693446  0.20718980  0.21320566    -0.03700
C89         C  0.38899014  0.23980028  0.17392326    -0.04500
C90         C  0.42889059  0.20680662  0.19336679    -0.04300
C91         C  0.36705549  0.18325982  0.19506301    -0.03700
C92         C  0.37969441  0.21557342  0.15544395    -0.04500
C93         C  0.41993900  0.18275982  0.17419733    -0.04300
C94         C  0.34057078  0.16985432  0.20785612    -0.29700
N95         N  0.33588073  0.18405874  0.23313543     0.16800
C96         C  0.35753691  0.20711554  0.23649895    -0.29700
H97         H  0.35857528  0.22300741  0.25439083     0.18700
C98         C  0.35836901  0.22784562  0.13665197    -0.28700
N99         N  0.35491833  0.25846659  0.14284190     0.15500
C100        C  0.37198097  0.26561517  0.16606839    -0.28700
C101        C  0.44618761  0.17824527  0.15701515    -0.29000
N102        N  0.46997198  0.19741959  0.16562054     0.16000
H103        H  0.44660243  0.16491187  0.13751391     0.18600
C104        C  0.45960236  0.21500480  0.18729067    -0.29000
H105        H  0.47182843  0.23564079  0.19524662     0.18600
H106        H  0.36917887  0.28708011  0.17798328     0.18600
H107        H  0.32467319  0.15226477  0.19945343     0.18700
H108        H  0.34411551  0.21486601  0.12156038     0.18600
C109        C  0.40550005  0.32225664  0.29078382     0.32500
C110        C  0.38707616  0.36569803  0.33003998     0.32500
C111        C  0.37767064  0.34248148  0.28260137    -0.03700
C112        C  0.39464607  0.30909970  0.31952527    -0.04500
C113        C  0.43085759  0.34668061  0.29928488    -0.04300
C114        C  0.36870386  0.36485673  0.30210214    -0.03700
C115        C  0.38621929  0.33132402  0.33972972    -0.04500
C116        C  0.42177825  0.36911083  0.32026367    -0.04300
C117        C  0.34403780  0.38117144  0.29038463    -0.29700
N118        N  0.33792884  0.36858776  0.26460864     0.16800
C119        C  0.35799917  0.34488291  0.25970428    -0.29700
H120        H  0.35825317  0.33075515  0.24064801     0.18700
C121        C  0.37308248  0.31557333  0.36232779    -0.28700
N122        N  0.37163824  0.28487424  0.35567648     0.15500
C123        C  0.38368895  0.28067884  0.32949724    -0.28700
C124        C  0.44838669  0.37344831  0.33700676    -0.29000
N125        N  0.47246809  0.35650227  0.32635822     0.16000
H126        H  0.44866752  0.38425462  0.35775348     0.18600
C127        C  0.46203184  0.34015976  0.30384151    -0.29000
H128        H  0.47456274  0.32075146  0.29443834     0.18600
H129        H  0.38102840  0.25912889  0.31758795     0.18600
H130        H  0.33173658  0.40074009  0.29971010     0.18700
H131        H  0.36227858  0.32578527  0.38089002     0.18600
O132        O  0.25713147  0.38761138  0.19269110    -0.55300
C133        C  0.20025122  0.35864660  0.12536849     0.77300
O134        O  0.28758117  0.42062511  0.10789934    -0.56500
C135        C  0.28653714  0.38606990  0.19683565     0.77300
C136        C  0.29557702  0.32622664  0.12689060     0.79700
Cd137      Cd  0.26210877  0.38216203  0.14048106     1.37500
O138        O  0.20752041  0.36368222  0.15096607    -0.55300
O139        O  0.27174290  0.32626456  0.14280245    -0.54100
C140        C  0.27460875  0.44449284  0.11854688     0.79600
O141        O  0.30309329  0.35175274  0.11509214    -0.56500
O142        O  0.21996049  0.36784793  0.10702076    -0.54900
O143        O  0.30403920  0.38425490  0.17534022    -0.54900
O144        O  0.25512632  0.43966192  0.13835150    -0.54100
O145        O  0.33706164  0.24523178  0.94270361    -0.55300
C146        C  0.30640641  0.29500126  0.86861279     0.77300
O147        O  0.36999997  0.21500950  0.85502004    -0.56500
C148        C  0.33434984  0.21613935  0.94753355     0.77300
C149        C  0.28372337  0.19379229  0.87694333     0.79700
Cd150      Cd  0.33327393  0.23718424  0.88960639     1.37500
O151        O  0.31357372  0.29221320  0.89444695    -0.55300
O152        O  0.27884331  0.21833002  0.89125272    -0.54100
C153        C  0.39503707  0.22394202  0.86710785     0.79600
O154        O  0.31084761  0.19041600  0.86638227    -0.56500
O155        O  0.31464007  0.27289272  0.85246507    -0.54900
O156        O  0.33296722  0.19818406  0.92636705    -0.54900
O157        O  0.39207027  0.24089367  0.88899491    -0.54100
C158        C  0.18011782  0.09170564  0.95336402     0.32500
C159        C  0.13814685  0.11213490  0.91414546     0.32500
C160        C  0.16178676  0.12095276  0.96144457    -0.03700
C161        C  0.19441592  0.10083038  0.92452488    -0.04500
C162        C  0.15391559  0.06798575  0.94507200    -0.04300
C163        C  0.14026368  0.13095733  0.94185096    -0.03700
C164        C  0.17278835  0.11017653  0.90411984    -0.04500
C165        C  0.13211931  0.07827490  0.92421709    -0.04300
C166        C  0.12485159  0.15630649  0.95353942    -0.29700
N167        N  0.13698152  0.16183681  0.97953330     0.16800
C168        C  0.15965609  0.14063720  0.98457413    -0.29700
H169        H  0.17280739  0.13922308  0.00405452     0.18700
C170        C  0.18961920  0.12475717  0.88284504    -0.28700
N171        N  0.21999069  0.12706829  0.89083606     0.15500
C172        C  0.22302205  0.11379436  0.91643283    -0.28700
C173        C  0.12620286  0.05218522  0.90725691    -0.29000
N174        N  0.14185819  0.02732245  0.91738594     0.16000
H175        H  0.11565862  0.05270108  0.88647687     0.18600
C176        C  0.15867608  0.03663555  0.94003138    -0.29000
H177        H  0.17752464  0.02311897  0.94905113     0.18600
H178        H  0.24347088  0.11736007  0.92971843     0.18600
H179        H  0.10568267  0.16909643  0.94424342     0.18700
H180        H  0.18007315  0.13663362  0.86475660     0.18600
C181        C  0.27184747  0.09431149  0.04216452     0.32500
C182        C  0.31770254  0.11245392  0.07976477     0.32500
C183        C  0.29545316  0.11893976  0.03152752    -0.03700
C184        C  0.26015319  0.10947307  0.06986732    -0.04500
C185        C  0.29296775  0.06811154  0.05255423    -0.04300
C186        C  0.31866471  0.12880191  0.05050122    -0.03700
C187        C  0.28361234  0.11860487  0.08904046    -0.04500
C188        C  0.31635973  0.07699030  0.07242358    -0.04300
C189        C  0.33141063  0.15624431  0.03916531    -0.29700
N190        N  0.31804651  0.16140152  0.01373461     0.16800
C191        C  0.29570357  0.13922526  0.00905116    -0.29700
H192        H  0.27978173  0.13886357  0.99122605     0.18700
C193        C  0.27013919  0.13871015  0.10843635    -0.28700
N194        N  0.23945512  0.14168980  0.10163006     0.15500
C195        C  0.23344036  0.12534202  0.07771936    -0.28700
C196        C  0.31920830  0.05133764  0.09015667    -0.29000
N197        N  0.29974867  0.02793289  0.08124544     0.16000
H198        H  0.33161370  0.05115844  0.11007619     0.18600
C199        C  0.28349313  0.03804446  0.05883899    -0.29000
H200        H  0.26286211  0.02619304  0.05031898     0.18600
H201        H  0.21202563  0.12769560  0.06564748     0.18600
H202        H  0.34747121  0.17274447  0.04903007     0.18700
H203        H  0.28222205  0.15224596  0.12460811     0.18600
O204        O  0.13120940  0.28922645  0.09927799    -0.55300
C205        C  0.11358621  0.21121954  0.04792843     0.77300
O206        O  0.14392573  0.19192853  0.12955330    -0.56500
C207        C  0.13784205  0.29405817  0.12504683     0.77300
C208        C  0.05324278  0.21723762  0.12842787     0.79700
Cd209      Cd  0.11447320  0.23350533  0.10552888     1.37500
O210        O  0.10945472  0.24005228  0.05300350    -0.55300
O211        O  0.05627996  0.23766873  0.10936286    -0.54100
C212        C  0.16978262  0.19912391  0.11774974     0.79600
O213        O  0.07822561  0.20512876  0.13750388    -0.56500
O214        O  0.11567993  0.19343338  0.06890894    -0.54900
O215        O  0.13030487  0.27246162  0.14197004    -0.54900
O216        O  0.17026169  0.22288636  0.10214069    -0.54100
O217        O  0.25301117  0.17628839  0.66735998    -0.55300
C218        C  0.16783538  0.15326798  0.70789273     0.77300
O219        O  0.16186463  0.19154115  0.62623275    -0.56500
C220        C  0.26132675  0.18359475  0.64253481     0.77300
C221        C  0.18805487  0.09911090  0.62737187     0.79700
Cd222      Cd  0.19886030  0.15925445  0.65400395     1.37500
O223        O  0.19767707  0.15236359  0.70663937    -0.55300
O224        O  0.20539509  0.10189422  0.64899220    -0.54100
C225        C  0.16632257  0.21555804  0.64164219     0.79600
O226        O  0.17676545  0.12394650  0.61744686    -0.56500
O227        O  0.15322385  0.15474529  0.68479551    -0.54900
O228        O  0.24248385  0.17599252  0.62289997    -0.54900
O229        O  0.18666294  0.21382491  0.66089004    -0.54100
C230        C  0.04578167  0.22745932  0.79437763     0.30100
C231        C  0.06265455  0.18765747  0.83662169     0.32500
C232        C  0.06997028  0.20253010  0.78674486    -0.03700
C233        C  0.05904053  0.24274767  0.82121903    -0.04500
C234        C  0.01814940  0.20761967  0.80675796    -0.04300
C235        C  0.07878851  0.18277499  0.80802680    -0.03700
C236        C  0.06721865  0.22283076  0.84275515    -0.04500
C237        C  0.02695732  0.18651072  0.82896926    -0.04300
C238        C  0.10269475  0.16416724  0.79752993    -0.29700
N239        N  0.10808604  0.17233982  0.77036006     0.16800
C240        C  0.08821254  0.19554036  0.76347107    -0.29700
H241        H  0.08789944  0.20719144  0.74326257     0.18700
C242        C  0.07955039  0.24115644  0.86429587    -0.28700
N243        N  0.07959362  0.27125206  0.85583123     0.15500
C244        C  0.06693303  0.27263868  0.82971700    -0.28700
C245        C  0.50059081  0.17881359  0.84390056    -0.29000
N246        N  0.47764378  0.19639721  0.83260205     0.16000
H247        H  0.49967948  0.16953623  0.86509393     0.18600
C248        C  0.48903535  0.21052356  0.80938096    -0.29000
H249        H  0.47762315  0.23025810  0.79984087     0.18600
H250        H  0.06580454  0.29358164  0.81707523     0.18600
H251        H  0.11576176  0.14678715  0.80897338     0.18700
H252        H  0.08988125  0.23316557  0.88377848     0.18600
C253        C  0.04778965  0.32042166  0.70235902     0.32500
C254        C  0.06520597  0.36185835  0.66082619     0.32500
C255        C  0.05988553  0.35294029  0.71259666    -0.03700
C256        C  0.07380311  0.30989661  0.68183990    -0.04500
C257        C  0.02147360  0.32917101  0.68148950    -0.04300
C258        C  0.06982015  0.37385848  0.69140012    -0.03700
C259        C  0.08331410  0.33097321  0.66134201    -0.04500
C260        C  0.03051735  0.35041875  0.66038095    -0.04300
C261        C  0.09421142  0.39154993  0.70336770    -0.29700
N262        N  0.09700099  0.38418265  0.73093926     0.16800
C263        C  0.07626930  0.36100795  0.73678096    -0.29700
H264        H  0.07615395  0.34823095  0.75640602     0.18700
C265        C  0.10669928  0.31666938  0.64561036    -0.28700
N266        N  0.11025726  0.28736983  0.65550494     0.15500
C267        C  0.09050578  0.28288776  0.67753842    -0.28700
C268        C  0.50652177  0.35249812  0.64466280    -0.29000
N269        N  0.48257596  0.33365030  0.65349630     0.16000
H270        H  0.50607853  0.36679988  0.62591855     0.18600
C271        C  0.49179877  0.31816148  0.67683900    -0.29000
H272        H  0.47712080  0.30101187  0.68711541     0.18600
H273        H  0.08825847  0.26135814  0.68929665     0.18600
H274        H  0.11114973  0.40586414  0.69205624     0.18700
H275        H  0.11993624  0.32638216  0.62814518     0.18600
O276        O  0.23565496  0.36094285  0.83992875    -0.55300
C277        C  0.15672432  0.39434780  0.79473365     0.77300
O278        O  0.14277355  0.36377878  0.88074871    -0.56500
C279        C  0.24397070  0.35894137  0.86552920     0.77300
C280        C  0.17226211  0.44748125  0.87485925     0.79700
Cd281      Cd  0.18388236  0.38707092  0.85026825     1.37500
O282        O  0.18585384  0.40022760  0.79822148    -0.55300
O283        O  0.19233216  0.44463018  0.85518068    -0.54100
C284        C  0.14206455  0.33831291  0.86699105     0.79600
O285        O  0.15936452  0.42274982  0.88386092    -0.56500
O286        O  0.14135216  0.38586008  0.81616224    -0.54900
O287        O  0.22623011  0.37209160  0.88335611    -0.54900
O288        O  0.16191811  0.33486267  0.84733470    -0.54100
C289        C  0.14090125  0.39601402  0.76792753    -0.10800
C290        C  0.12186038  0.39258054  0.74916402    -0.12300
C291        C  0.09909024  0.29476785  0.86696191    -0.10800
C292        C  0.11831407  0.31501390  0.87140734    -0.12300
C293        C  0.07058975  0.26704485  0.76265683    -0.10800
C294        C  0.04271313  0.25131050  0.77052706     0.11300
C295        C  0.01487306  0.25865605  0.75598696    -0.10800
C296        C  0.01522111  0.28165227  0.73462874    -0.10800
C297        C  0.04365313  0.29663690  0.72646247     0.11300
C298        C  0.07109873  0.28869782  0.74117799    -0.10800
H299        H  0.09263990  0.26218986  0.77314304     0.15300
H300        H  0.49670610  0.23756448  0.75693977     0.15300
H301        H  0.49610516  0.27861177  0.72218820     0.15300
H302        H  0.09364428  0.29923096  0.73579785     0.15300
C303        C  0.13182218  0.16112916  0.75236826    -0.10800
C304        C  0.15058843  0.15479081  0.73404071    -0.12300
C305        C  0.13066697  0.26462061  0.64497380    -0.10800
C306        C  0.14751929  0.24294773  0.63958885    -0.12300
C307        C  0.19685664  0.17978068  0.11946952    -0.10800
C308        C  0.21802674  0.16249379  0.11361245    -0.12300
C309        C  0.16377168  0.47731349  0.88653275    -0.10800
C310        C  0.15500576  0.50087944  0.89814573    -0.12300
C311        C  0.12563077  0.18304101  0.99980930    -0.10800
C312        C  0.11780145  0.19862506  0.01995626    -0.12300
C313        C  0.08569115  0.11881043  0.88566049    -0.10800
C314        C  0.11623255  0.12895716  0.89377072     0.11300
C315        C  0.12649349  0.15852093  0.88482853    -0.10800
C316        C  0.10926035  0.17572912  0.86615628    -0.10800
C317        C  0.07841962  0.16698915  0.85857516     0.11300
C318        C  0.06664058  0.13801056  0.86843594    -0.10800
H319        H  0.07634407  0.09667508  0.89301630     0.15300
H320        H  0.14858043  0.16856928  0.89210151     0.15300
H321        H  0.12055230  0.19639028  0.85754376     0.15300
H322        H  0.04342983  0.12985532  0.86219959     0.15300
C323        C  0.23479516  0.07486623  0.97079599    -0.10800
C324        C  0.20282877  0.08084226  0.97633829     0.11300
C325        C  0.19283464  0.07945957  0.00461673    -0.10800
C326        C  0.21497882  0.08071114  0.02647660    -0.10800
C327        C  0.24735257  0.08367164  0.02028819     0.11300
C328        C  0.25695416  0.07678660  0.99254849    -0.10800
H329        H  0.24307750  0.07017659  0.94964904     0.15300
H330        H  0.16799493  0.08022259  0.00981057     0.15300
H331        H  0.20652970  0.08021465  0.04795828     0.15300
H332        H  0.28174801  0.07514330  0.98738218     0.15300
C333        C  0.28712737  0.32101093  0.85768893    -0.13900
C334        C  0.27146142  0.34058080  0.87497332    -0.29100
H335        H  0.28191149  0.32093898  0.83523958     0.15100
H336        H  0.27594434  0.33987240  0.89753288     0.15700
C337        C  0.42531133  0.21453176  0.85645786    -0.10800
C338        C  0.44972014  0.20558249  0.84617061    -0.12300
C339        C  0.32596977  0.18536783  0.99469250    -0.10800
C340        C  0.33146867  0.20296571  0.97535212    -0.12300
C341        C  0.26031874  0.16957168  0.87529074    -0.10800
C342        C  0.24144414  0.14916400  0.88031438    -0.12300
C343        C  0.17182208  0.34049920  0.11680798    -0.13900
C344        C  0.15608715  0.32185789  0.13495369    -0.29100
H345        H  0.16756331  0.33789901  0.09429843     0.15100
H346        H  0.16130702  0.32345756  0.15737373     0.15700
C347        C  0.28152501  0.47574769  0.10858110    -0.10800
C348        C  0.28603740  0.50197900  0.09976137    -0.12300
C349        C  0.30004590  0.38465475  0.22449977    -0.10800
C350        C  0.31614221  0.37890341  0.24468016    -0.12300
C351        C  0.99772952  0.20169873  0.15026175    -0.10800
C352        C  0.02282917  0.20828516  0.13956107    -0.12300
C353        C  0.38340440  0.15982122  0.11614975    -0.10800
C354        C  0.37464248  0.15671221  0.14464960     0.11300
C355        C  0.35500064  0.13109393  0.15152710    -0.10800
C356        C  0.33803558  0.11509995  0.13043979    -0.10800
C357        C  0.34238010  0.12265508  0.10182722     0.11300
C358        C  0.36843401  0.14190283  0.09515897    -0.10800
H359        H  0.40058601  0.17737152  0.10987936     0.15300
H360        H  0.35211102  0.12357731  0.17297651     0.15300
H361        H  0.32017952  0.09819733  0.13664663     0.15300
H362        H  0.37690677  0.14393931  0.07382329     0.15300
C363        C  0.31495299  0.29914691  0.12519873    -0.10800
C364        C  0.33294792  0.27872164  0.13115426    -0.12300
C365        C  0.41614795  0.28602820  0.21757673    -0.10800
C366        C  0.41341376  0.25400305  0.22392496     0.11300
C367        C  0.41999341  0.24500542  0.25175060    -0.10800
C368        C  0.42129215  0.26733808  0.27343336    -0.10800
C369        C  0.41543996  0.29896253  0.26772416     0.11300
C370        C  0.41720476  0.30836287  0.23935869    -0.10800
H371        H  0.41665907  0.29404911  0.19604821     0.15300
H372        H  0.42177361  0.22049223  0.25703637     0.15300
H373        H  0.42601771  0.25953353  0.29457272     0.15300
H374        H  0.41681315  0.33293489  0.23402207     0.15300
C375        C  0.29796946  0.16987901  0.27445237    -0.10800
C376        C  0.31381933  0.17540661  0.25385489    -0.12300
C377        C  0.33266415  0.24344472  0.37531389    -0.10800
C378        C  0.35181018  0.26301648  0.36875509    -0.12300
C379        C  0.16092986  0.23332800  0.36748364    -0.13900
C380        C  0.17917036  0.21908640  0.38661446    -0.29100
H381        H  0.16337631  0.22722429  0.34528043     0.15100
H382        H  0.17756995  0.22592740  0.40870834     0.15700
C383        C  0.02597450  0.34324315  0.34711619    -0.10800
C384        C  0.00156267  0.35142881  0.33662768    -0.12300
C385        C  0.29917735  0.05478554  0.40020424    -0.10800
C386        C  0.28975301  0.07920253  0.39094407    -0.12300
C387        C  0.36525005  0.43579431  0.37962247    -0.10800
C388        C  0.33557634  0.42498595  0.38934995     0.11300
C389        C  0.32500438  0.39547684  0.38003852    -0.10800
C390        C  0.34091611  0.37896019  0.35969495    -0.10800
C391        C  0.37118387  0.38799477  0.35093503     0.11300
C392        C  0.38336512  0.41697595  0.36090270    -0.10800
H393        H  0.37475402  0.45796884  0.38702038     0.15300
H394        H  0.30358561  0.38498123  0.38830583     0.15300
H395        H  0.32968941  0.35790550  0.35148407     0.15300
H396        H  0.40624204  0.42527975  0.35393242     0.15300
C397        C  0.21000912  0.40619101  0.37639924    -0.10800
C398        C  0.19039944  0.38674827  0.37048342    -0.12300
C399        C  0.17501238  0.04423568  0.60349425    -0.10800
C400        C  0.18113292  0.06906004  0.61472152    -0.12300
C401        C  0.09908882  0.36811457  0.46558556    -0.10800
C402        C  0.10216893  0.38720127  0.48430171    -0.12300
C403        C  0.09996900  0.38813776  0.59101113    -0.10800
C404        C  0.10847245  0.41972114  0.59602655     0.11300
C405        C  0.09642982  0.43395296  0.62059736    -0.10800
C406        C  0.08040843  0.41611703  0.64102697    -0.10800
C407        C  0.07493614  0.38384561  0.63685735     0.11300
C408        C  0.08166502  0.37128386  0.61014797    -0.10800
H409        H  0.10887833  0.37568839  0.57275590     0.15300
H410        H  0.09987186  0.45833848  0.62488641     0.15300
H411        H  0.07289845  0.42757903  0.66028426     0.15300
H412        H  0.07552100  0.34724579  0.60508427     0.15300
C413        C  0.23374800  0.46740329  0.52447937    -0.10800
C414        C  0.20182117  0.46626554  0.51638323     0.11300
C415        C  0.19460849  0.47531702  0.48874290    -0.10800
C416        C  0.21843422  0.47768102  0.46848201    -0.10800
C417        C  0.24955347  0.46946753  0.47517318     0.11300
C418        C  0.25753526  0.46855843  0.50392424    -0.10800
H419        H  0.24031399  0.46473823  0.54638027     0.15300
H420        H  0.17056496  0.47945058  0.48242121     0.15300
H421        H  0.21203525  0.48430589  0.44731604     0.15300
H422        H  0.28183595  0.46619551  0.51034156     0.15300
C423        C  0.29860849  0.21112421  0.61094962    -0.13900
C424        C  0.28967608  0.20320483  0.63726421    -0.29100
H425        H  0.28897986  0.19833983  0.59295692     0.15100
H426        H  0.29988581  0.21550868  0.65527325     0.15700
C427        C  0.42792496  0.32365989  0.62922046    -0.10800
C428        C  0.45333455  0.32893487  0.63999276    -0.12300
C429        C  0.33094535  0.36723169  0.49313416    -0.10800
C430        C  0.33859974  0.34924705  0.51133372    -0.12300
C431        C  0.22885433  0.36989594  0.59244116    -0.10800
C432        C  0.25057952  0.35371150  0.59920240    -0.12300
O433        O  0.33022990  0.74468097  0.57586567    -0.55300
C434        C  0.34457879  0.83064304  0.53243669     0.77300
O435        O  0.30781225  0.83702799  0.61333625    -0.56500
C436        C  0.32186971  0.73772763  0.60078765     0.77300
C437        C  0.40251887  0.81502028  0.61069140     0.79700
Cd438      Cd  0.34179063  0.80059393  0.58656617     1.37500
O439        O  0.34513831  0.80100263  0.53361799    -0.55300
O440        O  0.39972618  0.79648503  0.58983159    -0.54100
C441        C  0.28386036  0.83094492  0.59822302     0.79600
O442        O  0.37742258  0.82604024  0.62099048    -0.56500
O443        O  0.34507076  0.84543519  0.55557390    -0.54900
O444        O  0.32600924  0.75868855  0.61951087    -0.54900
O445        O  0.28622501  0.80951594  0.57991225    -0.54100
C446        C  0.18390914  0.95254977  0.53743226     0.32500
C447        C  0.13909132  0.93310531  0.57557167     0.32500
C448        C  0.15281355  0.94041018  0.52459292    -0.03700
C449        C  0.19318452  0.92528369  0.55646983    -0.04500
C450        C  0.17310625  0.97714305  0.55870290    -0.04300
C451        C  0.12945920  0.93091008  0.54395290    -0.03700
C452        C  0.17063582  0.91585552  0.57603634    -0.04500
C453        C  0.15056794  0.96777943  0.57873264    -0.04300
C454        C  0.11002671  0.90977185  0.52952935    -0.29700
N455        N  0.12153762  0.90535218  0.50324792     0.16800
C456        C  0.14778961  0.92305807  0.50025567    -0.29700
H457        H  0.16412825  0.92070977  0.48279908     0.18700
C458        C  0.18373056  0.89271583  0.59225605    -0.28700
N459        N  0.21324006  0.88775802  0.58259365     0.15500
C460        C  0.21921992  0.90698520  0.56061960    -0.28700
C461        C  0.14474270  0.49378520  0.59935421    -0.29000
N462        N  0.16535309  0.51644028  0.59094245     0.16000
H463        H  0.13229109  0.49491867  0.61915433     0.18600
C464        C  0.17919072  0.50752279  0.56663586    -0.29000
H465        H  0.19780475  0.52033921  0.55594246     0.18600
H466        H  0.24107642  0.90752298  0.54883240     0.18600
H467        H  0.09077034  0.89613063  0.53823326     0.18700
H468        H  0.17286994  0.88068763  0.60987143     0.18600
C469        C  0.27739934  0.95985657  0.45009503     0.32500
C470        C  0.31799202  0.94240391  0.40814088     0.32500
C471        C  0.29839788  0.93203218  0.45663340    -0.03700
C472        C  0.26202997  0.94956944  0.42194976    -0.04500
C473        C  0.30116834  0.98537733  0.44070943    -0.04300
C474        C  0.31931907  0.92360738  0.43565733    -0.03700
C475        C  0.28274753  0.94163401  0.40035131    -0.04500
C476        C  0.32209632  0.97675149  0.41828605    -0.04300
C477        C  0.33548639  0.89775596  0.44508182    -0.29700
N478        N  0.32436395  0.89036449  0.47102140     0.16800
C479        C  0.30156532  0.91078707  0.47821138    -0.29700
H480        H  0.28812238  0.90976022  0.49762180     0.18700
C481        C  0.26520452  0.92819364  0.37881669    -0.28700
N482        N  0.23502107  0.92588048  0.38753370     0.15500
C483        C  0.23283578  0.93801177  0.41389584    -0.28700
C484        C  0.32475826  0.50193744  0.40660446    -0.29000
N485        N  0.30920934  0.52609341  0.41869113     0.16000
H486        H  0.33490871  0.50269136  0.38562820     0.18600
C487        C  0.29301073  0.51539758  0.44111048    -0.29000
H488        H  0.27440032  0.52825821  0.45150895     0.18600
H489        H  0.21235229  0.93507585  0.42730009     0.18600
H490        H  0.35361050  0.88509731  0.43384990     0.18700
H491        H  0.27409026  0.91748377  0.35966738     0.18600
O492        O  0.14248255  0.76700098  0.39533361    -0.55300
C493        C  0.10937892  0.84691621  0.43848994     0.77300
O494        O  0.14692663  0.85927891  0.35541657    -0.56500
C495        C  0.14897524  0.75957488  0.37003203     0.77300
C496        C  0.05803177  0.83084872  0.35967718     0.79700
Cd497      Cd  0.11894823  0.81918088  0.38375432     1.37500
O498        O  0.10817114  0.81733029  0.43593149    -0.55300
O499        O  0.06086841  0.81183416  0.37987281    -0.54100
C500        C  0.16992079  0.86104778  0.37234262     0.79600
O501        O  0.08311516  0.84207709  0.34927078    -0.56500
O502        O  0.11342333  0.86249945  0.41629573    -0.54900
O503        O  0.13867170  0.77769012  0.35128448    -0.54900
O504        O  0.17032369  0.84201453  0.39256613    -0.54100
O505        O  0.22157230  0.69094620  0.34824085    -0.55300
C506        C  0.30221303  0.65744911  0.30427199     0.77300
O507        O  0.31674011  0.69826349  0.38592749    -0.56500
C508        C  0.21487412  0.69843776  0.37348927     0.77300
C509        C  0.28639821  0.60968873  0.38548994     0.79700
Cd510      Cd  0.27524197  0.66911942  0.35935293     1.37500
O511        O  0.27252940  0.65553181  0.30746191    -0.55300
O512        O  0.26744860  0.61197729  0.36502817    -0.54100
C513        C  0.31729726  0.72063621  0.36856596     0.79600
O514        O  0.29802943  0.63483766  0.39534033    -0.56500
O515        O  0.31837259  0.66285072  0.32609000    -0.54900
O516        O  0.23438924  0.69006330  0.39200810    -0.54900
O517        O  0.29729024  0.71999767  0.34888979    -0.54100
C518        C  0.40292417  0.73233752  0.20126341     0.32500
C519        C  0.38452125  0.68609885  0.16404698     0.32500
C520        C  0.39094907  0.70182715  0.21474604    -0.03700
C521        C  0.37572634  0.74045846  0.18155716    -0.04500
C522        C  0.42804466  0.72112640  0.18085722    -0.04300
C523        C  0.38185017  0.67778628  0.19593871    -0.03700
C524        C  0.36669033  0.71719978  0.16246281    -0.04500
C525        C  0.41950917  0.69758206  0.16152454    -0.04300
C526        C  0.36178397  0.65804071  0.21108247    -0.29700
N527        N  0.35768485  0.67002138  0.23732370     0.16800
C528        C  0.37451071  0.69688148  0.23951394    -0.29700
H529        H  0.37232725  0.71333961  0.25688120     0.18700
C530        C  0.34386236  0.72965156  0.14524560    -0.28700
N531        N  0.33889540  0.75946076  0.15383115     0.15500
C532        C  0.35766609  0.76620859  0.17613105    -0.28700
C533        C  0.44635493  0.69319929  0.14497730    -0.29000
N534        N  0.46924686  0.71345989  0.15383352     0.16000
H535        H  0.44971916  0.67715005  0.12763584     0.18600
C536        C  0.45839430  0.73050121  0.17567915    -0.29000
H537        H  0.47132147  0.74910074  0.18635318     0.18600
H538        H  0.35825604  0.78849969  0.18710121     0.18600
H539        H  0.34888675  0.63791466  0.20306282     0.18700
H540        H  0.33232575  0.71824237  0.12751857     0.18600
C541        C  0.41003999  0.82808463  0.28559895     0.32500
C542        C  0.39182381  0.86949643  0.32643103     0.32500
C543        C  0.38155933  0.84815436  0.27840428    -0.03700
C544        C  0.40001160  0.81364592  0.31406556    -0.04500
C545        C  0.43539694  0.85237912  0.29448671    -0.04300
C546        C  0.37273227  0.86945605  0.29886464    -0.03700
C547        C  0.39181191  0.83482204  0.33510384    -0.04500
C548        C  0.42636118  0.87386449  0.31629589    -0.04300
C549        C  0.34658857  0.88497544  0.28886027    -0.29700
N550        N  0.33936641  0.87314424  0.26303153     0.16800
C551        C  0.36024102  0.85049020  0.25651238    -0.29700
H552        H  0.35962386  0.83672536  0.23725254     0.18700
C553        C  0.37992011  0.81790241  0.35756000    -0.28700
N554        N  0.37878392  0.78745344  0.34994066     0.15500
C555        C  0.39016700  0.78455849  0.32338189    -0.28700
C556        C  0.45306399  0.87738650  0.33312800    -0.29000
N557        N  0.47712343  0.86076554  0.32198379     0.16000
H558        H  0.45330108  0.88721371  0.35426345     0.18600
C559        C  0.46662816  0.84556925  0.29883648    -0.29000
H560        H  0.47906629  0.82649094  0.28879184     0.18600
H561        H  0.38797411  0.76337575  0.31085489     0.18600
H562        H  0.33376681  0.90332195  0.29956669     0.18700
H563        H  0.36963037  0.82716269  0.37675528     0.18600
O564        O  0.25138328  0.89436455  0.19704029    -0.55300
C565        C  0.19255700  0.86857723  0.12291996     0.77300
O566        O  0.28171303  0.92179682  0.10962292    -0.56500
C567        C  0.28110357  0.89234338  0.19961524     0.77300
C568        C  0.28446940  0.83054112  0.13451858     0.79700
Cd569      Cd  0.25383619  0.88857672  0.14386192     1.37500
O570        O  0.19652323  0.87438358  0.14903657    -0.55300
O571        O  0.26107841  0.83314497  0.15080890    -0.54100
C572        C  0.27202537  0.94761681  0.11929873     0.79600
O573        O  0.29273175  0.85439217  0.12046517    -0.56500
O574        O  0.21533182  0.87544243  0.10678299    -0.54900
O575        O  0.29703285  0.89097043  0.17715207    -0.54900
O576        O  0.25274607  0.94649877  0.13977323    -0.54100
O577        O  0.34134134  0.74084612  0.94378631    -0.55300
C578        C  0.30110337  0.79560395  0.87470533     0.77300
O579        O  0.36981515  0.71455390  0.85672402    -0.56500
C580        C  0.33982388  0.71129325  0.94644008     0.77300
C581        C  0.28256422  0.69449445  0.87938824     0.79700
Cd582      Cd  0.33272319  0.73765101  0.89093294     1.37500
O583        O  0.30701779  0.78996915  0.90038903    -0.55300
O584        O  0.28137562  0.71443106  0.89913271    -0.54100
C585        C  0.39466730  0.72689187  0.86663395     0.79600
O586        O  0.30620624  0.69559092  0.86306106    -0.56500
O587        O  0.31241235  0.77657266  0.85692250    -0.54900
O588        O  0.33699534  0.69532030  0.92411551    -0.54900
O589        O  0.39125723  0.74630960  0.88676690    -0.54100
C590        C  0.17483691  0.59267963  0.95469303     0.32500
C591        C  0.13360888  0.61152965  0.91432462     0.32500
C592        C  0.15294854  0.61938672  0.96331531    -0.03700
C593        C  0.18975959  0.60537325  0.92729986    -0.04500
C594        C  0.15187523  0.56710310  0.94371439    -0.04300
C595        C  0.13173328  0.62847434  0.94298701    -0.03700
C596        C  0.16879949  0.61399095  0.90641903    -0.04500
C597        C  0.13053708  0.57659952  0.92216857    -0.04300
C598        C  0.11527935  0.65363482  0.95376099    -0.29700
N599        N  0.12643755  0.66012186  0.97990200     0.16800
C600        C  0.14956243  0.63967806  0.98596520    -0.29700
H601        H  0.16324485  0.64015353  0.00521310     0.18700
C602        C  0.18603644  0.62864086  0.88541112    -0.28700
N603        N  0.21633208  0.63065789  0.89384333     0.15500
C604        C  0.21881214  0.61746965  0.91954071    -0.28700
C605        C  0.12853085  0.55129841  0.90363341    -0.29000
N606        N  0.14588614  0.52746185  0.91350955     0.16000
H607        H  0.11931399  0.55209482  0.88236284     0.18600
C608        C  0.16010496  0.53677127  0.93752415    -0.29000
H609        H  0.17941335  0.52442435  0.94712246     0.18600
H610        H  0.23953615  0.61966986  0.93269851     0.18600
H611        H  0.09710588  0.66665116  0.94320608     0.18700
H612        H  0.17691654  0.63992064  0.86682225     0.18600
C613        C  0.26982395  0.59705753  0.03955672     0.32500
C614        C  0.31255358  0.61657953  0.07914090     0.32500
C615        C  0.30106893  0.61064235  0.02752357    -0.03700
C616        C  0.25916399  0.62377581  0.05909164    -0.04500
C617        C  0.28067631  0.57228628  0.06012928    -0.04300
C618        C  0.32324578  0.62117568  0.04804717    -0.03700
C619        C  0.28093907  0.63379189  0.07914726    -0.04500
C620        C  0.30233478  0.58188144  0.08039428    -0.04300
C621        C  0.33853033  0.64697266  0.03612531    -0.29700
N622        N  0.32794063  0.65125883  0.00961313     0.16800
C623        C  0.30474860  0.63017911  0.00451933    -0.29700
H624        H  0.28883790  0.63160490  0.98675932     0.18700
C625        C  0.26731997  0.65775601  0.09436766    -0.28700
N626        N  0.23791762  0.66168656  0.08442121     0.15500
C627        C  0.23268946  0.64172328  0.06262406    -0.28700
C628        C  0.30720783  0.55634138  0.09766066    -0.29000
N629        N  0.28915056  0.53200725  0.08794588     0.16000
H630        H  0.32213854  0.55571153  0.11613384     0.18600
C631        C  0.27285184  0.54154853  0.06513449    -0.29000
H632        H  0.25598971  0.52734712  0.05345743     0.18600
H633        H  0.21106047  0.64040841  0.05061227     0.18600
H634        H  0.35330230  0.66382378  0.04717981     0.18700
H635        H  0.27757284  0.67121826  0.11154064     0.18600
O636        O  0.12179104  0.80216660  0.09176200    -0.55300
C637        C  0.10491511  0.71803708  0.04319315     0.77300
O638        O  0.14205011  0.70592632  0.11930091    -0.56500
C639        C  0.12792771  0.80703505  0.11768224     0.77300
C640        C  0.04941532  0.72725440  0.12410565     0.79700
Cd641      Cd  0.10792262  0.74565022  0.09848557     1.37500
O642        O  0.10251285  0.74753587  0.04573451    -0.55300
O643        O  0.04997681  0.74461387  0.10252820    -0.54100
C644        C  0.16611542  0.71549607  0.10588594     0.79600
O645        O  0.07562191  0.71971507  0.13455127    -0.56500
O646        O  0.10588958  0.70236420  0.06558930    -0.54900
O647        O  0.12111415  0.78510360  0.13447353    -0.54900
O648        O  0.16374356  0.74024930  0.09181667    -0.54100
O649        O  0.26228341  0.67186884  0.66466633    -0.55300
C650        C  0.17542535  0.65134738  0.70773223     0.77300
O651        O  0.16948019  0.68963939  0.62762769    -0.56500
C652        C  0.26884938  0.68043671  0.63973472     0.77300
C653        C  0.19223380  0.59731109  0.62893681     0.79700
Cd654      Cd  0.20658867  0.65699969  0.65407655     1.37500
O655        O  0.20532108  0.65077196  0.70666059    -0.55300
O656        O  0.20914195  0.59930776  0.65089770    -0.54100
C657        C  0.17392585  0.71326532  0.64351771     0.79600
O658        O  0.18377704  0.62262728  0.61778704    -0.56500
O659        O  0.16090421  0.65254216  0.68456600    -0.54900
O660        O  0.24825437  0.67452045  0.62109464    -0.54900
O661        O  0.19434216  0.71120523  0.66270404    -0.54100
C662        C  0.04760405  0.72223552  0.78885600     0.30100
C663        C  0.06236759  0.68301943  0.83177500     0.32500
C664        C  0.07475874  0.69990492  0.78338803    -0.03700
C665        C  0.05580598  0.73795568  0.81706901    -0.04500
C666        C  0.02044798  0.69970136  0.79774127    -0.04300
C667        C  0.08251664  0.68032746  0.80505210    -0.03700
C668        C  0.06292619  0.71828417  0.83901132    -0.04500
C669        C  0.02822574  0.67883146  0.82039264    -0.04300
C670        C  0.10769324  0.66249346  0.79593021    -0.29700
N671        N  0.11487698  0.67111895  0.76917459     0.16800
C672        C  0.09490362  0.69380174  0.76124856    -0.29700
H673        H  0.09512657  0.70505795  0.74084694     0.18700
C674        C  0.07140450  0.73710519  0.86174489    -0.28700
N675        N  0.07038094  0.76730747  0.85356837     0.15500
C676        C  0.06050574  0.76817770  0.82647772    -0.28700
C677        C  0.49994569  0.68185167  0.84032644    -0.29000
N678        N  0.47699822  0.70040142  0.83031005     0.16000
H679        H  0.49986813  0.67218026  0.86138252     0.18600
C680        C  0.48755695  0.71436505  0.80665832    -0.29000
H681        H  0.47616036  0.73436676  0.79757703     0.18600
H682        H  0.05961111  0.78913968  0.81384564     0.18600
H683        H  0.11974014  0.64469737  0.80775078     0.18700
H684        H  0.08028468  0.72952334  0.88193104     0.18600
C685        C  0.05184282  0.81756139  0.69984856     0.32500
C686        C  0.07115999  0.85905940  0.65920861     0.32500
C687        C  0.06403084  0.84989106  0.71066591    -0.03700
C688        C  0.07825130  0.80682573  0.67997332    -0.04500
C689        C  0.02629681  0.82710093  0.67858562    -0.04300
C690        C  0.07500821  0.87075015  0.68990225    -0.03700
C691        C  0.08874615  0.82787889  0.65990064    -0.04500
C692        C  0.03636463  0.84832759  0.65787933    -0.04300
C693        C  0.09859431  0.88868809  0.70275764    -0.29700
N694        N  0.09972393  0.88160016  0.73050582     0.16800
C695        C  0.07870862  0.85841739  0.73558661    -0.29700
H696        H  0.07714351  0.84615419  0.75544374     0.18700
C697        C  0.11302906  0.81362249  0.64528557    -0.28700
N698        N  0.11615676  0.78438981  0.65545892     0.15500
C699        C  0.09525216  0.77988193  0.67658272    -0.28700
C700        C  0.51057459  0.85377377  0.63878410    -0.29000
N701        N  0.48653183  0.83491935  0.64731090     0.16000
H702        H  0.51086984  0.86724660  0.61953158     0.18600
C703        C  0.49516609  0.81969663  0.67091812    -0.29000
H704        H  0.48085332  0.80159532  0.68033764     0.18600
H705        H  0.09270252  0.75852296  0.68855466     0.18600
H706        H  0.11591675  0.90320109  0.69212211     0.18700
H707        H  0.12742475  0.82345896  0.62861683     0.18600
O708        O  0.22779594  0.85953009  0.84732881    -0.55300
C709        C  0.15366897  0.89191949  0.79787445     0.77300
O710        O  0.12767572  0.86291225  0.87990648    -0.56500
C711        C  0.23445267  0.85619884  0.87318887     0.77300
C712        C  0.16299448  0.94498950  0.87983510     0.79700
Cd713      Cd  0.17488829  0.88431501  0.85546928     1.37500
O714        O  0.18232041  0.89760182  0.80376721    -0.55300
O715        O  0.18153451  0.94208576  0.85902558    -0.54100
C716        C  0.13037303  0.83592377  0.86914633     0.79600
O717        O  0.15162813  0.92016271  0.89016107    -0.56500
O718        O  0.13613801  0.88332330  0.81790547    -0.54900
O719        O  0.21521640  0.86803639  0.89054600    -0.54900
O720        O  0.15436180  0.83094590  0.85399988    -0.54100
C721        C  0.14066550  0.89389792  0.76991135    -0.10800
C722        C  0.12323386  0.89040660  0.74995469    -0.12300
C723        C  0.08794966  0.79162933  0.86597278    -0.10800
C724        C  0.10625419  0.81244035  0.87162177    -0.12300
C725        C  0.07250387  0.76448332  0.76057068    -0.10800
C726        C  0.04538629  0.74614389  0.76530658     0.11300
C727        C  0.01908214  0.75080695  0.74796055    -0.10800
C728        C  0.01973929  0.77440739  0.72732138    -0.10800
C729        C  0.04699033  0.79314336  0.72312643     0.11300
C730        C  0.07344399  0.78683752  0.73981275    -0.10800
H731        H  0.09363540  0.76109828  0.77292248     0.15300
H732        H  0.49403967  0.74471157  0.75450333     0.15300
H733        H  0.49559572  0.78607221  0.71978043     0.15300
H734        H  0.09569560  0.79886808  0.73631868     0.15300
C735        C  0.13898885  0.65949498  0.75182489    -0.10800
C736        C  0.15797588  0.65291808  0.73375746    -0.12300
C737        C  0.13761247  0.76193859  0.64633123    -0.10800
C738        C  0.15506832  0.74057041  0.64177277    -0.12300
C739        C  0.19405664  0.69757460  0.10387106    -0.10800
C740        C  0.21536436  0.68147863  0.09604460    -0.12300
C741        C  0.15487812  0.97503227  0.89137755    -0.10800
C742        C  0.14789686  0.99943036  0.90262170    -0.12300
C743        C  0.11589143  0.68381869  0.99820657    -0.10800
C744        C  0.10860471  0.70219217  0.01653175    -0.12300
C745        C  0.08423714  0.61477328  0.88140363    -0.10800
C746        C  0.11223024  0.62741367  0.89317656     0.11300
C747        C  0.12089959  0.65808978  0.88627506    -0.10800
C748        C  0.10514112  0.67423300  0.86601189    -0.10800
C749        C  0.07656859  0.66308677  0.85483767     0.11300
C750        C  0.06609219  0.63286004  0.86257600    -0.10800
H751        H  0.07623559  0.59149742  0.88693661     0.15300
H752        H  0.14116721  0.66950130  0.89588875     0.15300
H753        H  0.11588133  0.69587639  0.85892894     0.15300
H754        H  0.04485646  0.62292524  0.85340772     0.15300
C755        C  0.22942876  0.57492291  0.97033383    -0.10800
C756        C  0.19806353  0.58216489  0.97724196     0.11300
C757        C  0.18965459  0.58197729  0.00592996    -0.10800
C758        C  0.21312763  0.58296036  0.02660680    -0.10800
C759        C  0.24506792  0.58527941  0.01866228     0.11300
C760        C  0.25296430  0.57746092  0.99074910    -0.10800
H761        H  0.23619451  0.56933036  0.94889193     0.15300
H762        H  0.16522575  0.58359724  0.01230763     0.15300
H763        H  0.20624079  0.58476931  0.04856594     0.15300
H764        H  0.27728212  0.57474321  0.98439633     0.15300
C765        C  0.28042318  0.82144858  0.86532670    -0.13900
C766        C  0.26179159  0.83770751  0.88312286    -0.29100
H767        H  0.27738841  0.82422771  0.84272019     0.15100
H768        H  0.26418090  0.83439835  0.90573090     0.15700
C769        C  0.42524254  0.71839241  0.85561303    -0.10800
C770        C  0.44958157  0.70967326  0.84483022    -0.12300
C771        C  0.33542546  0.67635730  0.99161907    -0.10800
C772        C  0.33956065  0.69548513  0.97321518    -0.12300
C773        C  0.25885687  0.67056321  0.87741483    -0.10800
C774        C  0.23895262  0.65122854  0.88275753    -0.12300
C775        C  0.16446092  0.85183690  0.11149343    -0.13900
C776        C  0.14496087  0.83523630  0.12823818    -0.29100
H777        H  0.16378127  0.84780521  0.08881420     0.15100
H778        H  0.14691448  0.83797194  0.15099489     0.15700
C779        C  0.28271773  0.97684465  0.10743379    -0.10800
C780        C  0.29155346  0.00068124  0.09613561    -0.12300
C781        C  0.29694992  0.88963817  0.22638491    -0.10800
C782        C  0.31536527  0.88316986  0.24487354    -0.12300
C783        C  0.99605097  0.70868115  0.14775392    -0.10800
C784        C  0.02030250  0.71652416  0.13637091    -0.12300
C785        C  0.38388488  0.65196187  0.11832143    -0.10800
C786        C  0.36970725  0.66195712  0.14369838     0.11300
C787        C  0.33837033  0.65216544  0.14870037    -0.10800
C788        C  0.32219292  0.63309642  0.12960732    -0.10800
C789        C  0.33473135  0.62728752  0.10272057     0.11300
C790        C  0.36658251  0.63498569  0.09802357    -0.10800
H791        H  0.40729779  0.65885098  0.11267496     0.15300
H792        H  0.32534208  0.66079724  0.16670247     0.15300
H793        H  0.29831207  0.62591113  0.13470636     0.15300
H794        H  0.37795013  0.62890779  0.07831646     0.15300
C795        C  0.30243690  0.80248916  0.13454420    -0.10800
C796        C  0.31878301  0.78110233  0.14149054    -0.12300
C797        C  0.41552937  0.78955706  0.21323521    -0.10800
C798        C  0.41454718  0.75796733  0.22135159     0.11300
C799        C  0.42528307  0.75075599  0.24852405    -0.10800
C800        C  0.42857876  0.77433287  0.26881764    -0.10800
C801        C  0.41999982  0.80511969  0.26245484     0.11300
C802        C  0.41805996  0.81312742  0.23379423    -0.10800
H803        H  0.41221905  0.79606589  0.19143723     0.15300
H804        H  0.42965891  0.72684527  0.25454075     0.15300
H805        H  0.43606110  0.76805234  0.28978335     0.15300
H806        H  0.41572939  0.83728793  0.22756249     0.15300
C807        C  0.31767913  0.65592091  0.27720238    -0.10800
C808        C  0.33530301  0.66035038  0.25748921    -0.12300
C809        C  0.34076106  0.74488304  0.36933367    -0.10800
C810        C  0.35946903  0.76486193  0.36266489    -0.12300
C811        C  0.16946108  0.73274932  0.36229006    -0.13900
C812        C  0.18714376  0.71772313  0.38141456    -0.29100
H813        H  0.17344099  0.72833233  0.33995446     0.15100
H814        H  0.18391249  0.72299337  0.40370399     0.15700
C815        C  0.02777253  0.84006641  0.34920151    -0.10800
C816        C  0.00329409  0.84877985  0.33916528    -0.12300
C817        C  0.30270873  0.55490103  0.40610430    -0.10800
C818        C  0.29514022  0.57981552  0.39658332    -0.12300
C819        C  0.36807315  0.93878115  0.37579505    -0.10800
C820        C  0.33900240  0.92692858  0.38599120     0.11300
C821        C  0.32950647  0.89687636  0.37729185    -0.10800
C822        C  0.34610564  0.88045586  0.35738227    -0.10800
C823        C  0.37583002  0.89066816  0.34809007     0.11300
C824        C  0.38677101  0.92039314  0.35724856    -0.10800
H825        H  0.37666836  0.96151083  0.38266741     0.15300
H826        H  0.30852803  0.88577781  0.38582280     0.15300
H827        H  0.33553199  0.85893837  0.34949500     0.15300
H828        H  0.40905933  0.92960715  0.34967214     0.15300
C829        C  0.21284247  0.90489271  0.37619733    -0.10800
C830        C  0.19352198  0.88503201  0.37057921    -0.12300
C831        C  0.17387064  0.54366170  0.60592881    -0.10800
C832        C  0.18252175  0.56766740  0.61719168    -0.12300
C833        C  0.10827620  0.86303662  0.46517636    -0.10800
C834        C  0.11250129  0.88168444  0.48410284    -0.12300
C835        C  0.10822761  0.88540789  0.59081587    -0.10800
C836        C  0.11545675  0.91728872  0.59565074     0.11300
C837        C  0.10217514  0.93155203  0.61968548    -0.10800
C838        C  0.08603198  0.91348257  0.63986250    -0.10800
C839        C  0.08156906  0.88107496  0.63570094     0.11300
C840        C  0.08954897  0.86841218  0.60937676    -0.10800
H841        H  0.11834915  0.87287134  0.57313882     0.15300
H842        H  0.10490453  0.95605888  0.62383280     0.15300
H843        H  0.07763669  0.92482083  0.65888648     0.15300
H844        H  0.08405886  0.84425151  0.60422980     0.15300
C845        C  0.24104781  0.96494743  0.52363134    -0.10800
C846        C  0.20886549  0.96422563  0.51656888     0.11300
C847        C  0.20051802  0.97425769  0.48943222    -0.10800
C848        C  0.22342397  0.97723121  0.46840137    -0.10800
C849        C  0.25483516  0.96924546  0.47392763     0.11300
C850        C  0.26394470  0.96737614  0.50239211    -0.10800
H851        H  0.24853487  0.96159401  0.54519347     0.15300
H852        H  0.17617234  0.97830732  0.48400428     0.15300
H853        H  0.21612780  0.98409074  0.44752934     0.15300
H854        H  0.28851775  0.96518257  0.50799041     0.15300
C855        C  0.30485809  0.70807478  0.60692993    -0.13900
C856        C  0.29733106  0.69958871  0.63346192    -0.29100
H857        H  0.29391371  0.69592319  0.58918832     0.15100
H858        H  0.30893007  0.71114358  0.65118868     0.15700
C859        C  0.43286245  0.82316621  0.62231496    -0.10800
C860        C  0.45796677  0.82937209  0.63310307    -0.12300
C861        C  0.33476056  0.86623130  0.48852007    -0.10800
C862        C  0.34145563  0.84753046  0.50646511    -0.12300
C863        C  0.23493816  0.86665481  0.59342316    -0.10800
C864        C  0.25605775  0.84941129  0.59933194    -0.12300
O865        O  0.82442775  0.24208116  0.57800575    -0.55300
C866        C  0.84055377  0.32580573  0.53291842     0.77300
O867        O  0.80477266  0.33573930  0.61382472    -0.56500
C868        C  0.81787421  0.23531607  0.60337735     0.77300
C869        C  0.89943796  0.31069343  0.61219178     0.79700
Cd870      Cd  0.83812671  0.29756669  0.58793320     1.37500
O871        O  0.84070326  0.29621888  0.53488965    -0.55300
O872        O  0.89627371  0.29184886  0.59157460    -0.54100
C873        C  0.78007158  0.32830478  0.60022094     0.79600
O874        O  0.87456379  0.32273696  0.62195043    -0.56500
O875        O  0.84183260  0.34131158  0.55566054    -0.54900
O876        O  0.82390448  0.25615478  0.62181322    -0.54900
O877        O  0.78185044  0.30565968  0.58310172    -0.54100
C878        C  0.68123698  0.44988356  0.54017451     0.32500
C879        C  0.63593665  0.43238265  0.57875093     0.32500
C880        C  0.64946063  0.43945399  0.52762202    -0.03700
C881        C  0.68934421  0.42211012  0.55890516    -0.04500
C882        C  0.67201411  0.47475902  0.56158466    -0.04300
C883        C  0.62582086  0.43089627  0.54714201    -0.03700
C884        C  0.66665960  0.41357058  0.57871054    -0.04500
C885        C  0.64915714  0.46658721  0.58174351    -0.04300
C886        C  0.60548473  0.41061712  0.53266555    -0.29700
N887        N  0.61678280  0.40574290  0.50634808     0.16800
C888        C  0.64365835  0.42240070  0.50331215    -0.29700
H889        H  0.65995460  0.41923600  0.48592622     0.18700
C890        C  0.67933821  0.39017603  0.59497769    -0.28700
N891        N  0.70861607  0.38428791  0.58503601     0.15500
C892        C  0.71483330  0.40312966  0.56288039    -0.28700
C893        C  0.64664834  0.99642788  0.59870878    -0.29000
N894        N  0.66720889  0.01945260  0.59115207     0.16000
H895        H  0.63246706  0.99787101  0.61751465     0.18600
C896        C  0.68324957  0.01037760  0.56797862    -0.29000
H897        H  0.70241125  0.02340821  0.55830802     0.18600
H898        H  0.73663847  0.40313739  0.55101312     0.18600
H899        H  0.58569504  0.39775918  0.54135796     0.18700
H900        H  0.66847279  0.37884298  0.61295927     0.18600
C901        C  0.77458561  0.45610385  0.45238007     0.32500
C902        C  0.81485133  0.43964862  0.40986575     0.32500
C903        C  0.79425148  0.42707373  0.45767333    -0.03700
C904        C  0.75911794  0.44821929  0.42369184    -0.04500
C905        C  0.79949276  0.48117793  0.44455251    -0.04300
C906        C  0.81502584  0.41904845  0.43645683    -0.03700
C907        C  0.77971980  0.44090308  0.40179788    -0.04500
C908        C  0.82023945  0.47321693  0.42184269    -0.04300
C909        C  0.83068966  0.39254745  0.44522375    -0.29700
N910        N  0.81939572  0.38447414  0.47098106     0.16800
C911        C  0.79699959  0.40511048  0.47869137    -0.29700
H912        H  0.78389608  0.40407642  0.49828906     0.18700
C913        C  0.76194345  0.42885951  0.37975570    -0.28700
N914        N  0.73177853  0.42644255  0.38846745     0.15500
C915        C  0.72986507  0.43710643  0.41533429    -0.28700
C916        C  0.82678312  0.00410014  0.40510587    -0.29000
N917        N  0.81029792  0.02797633  0.41661364     0.16000
H918        H  0.83581733  0.00411751  0.38371426     0.18600
C919        C  0.79611384  0.01782812  0.44028895    -0.29000
H920        H  0.77734691  0.03021964  0.45092880     0.18600
H921        H  0.70952764  0.43337223  0.42877002     0.18600
H922        H  0.84894929  0.38023420  0.43385268     0.18700
H923        H  0.77063944  0.41891696  0.36020489     0.18600
O924        O  0.63896562  0.26941250  0.39966027    -0.55300
C925        C  0.60562907  0.34776976  0.44145963     0.77300
O926        O  0.64163501  0.36227112  0.35793157    -0.56500
C927        C  0.64434453  0.26038705  0.37460559     0.77300
C928        C  0.55535266  0.33209358  0.36119546     0.79700
Cd929      Cd  0.61569537  0.32087218  0.38636609     1.37500
O930        O  0.60504505  0.31824210  0.43856264    -0.55300
O931        O  0.55765645  0.31507420  0.38283644    -0.54100
C932        C  0.66607782  0.36292021  0.37312181     0.79600
O933        O  0.58072159  0.34135780  0.34984617    -0.56500
O934        O  0.60964753  0.36370513  0.41946557    -0.54900
O935        O  0.63387852  0.27760416  0.35525244    -0.54900
O936        O  0.66802380  0.34284669  0.39239964    -0.54100
O937        O  0.71379781  0.19021421  0.35347668    -0.55300
C938        C  0.78634264  0.17064937  0.30239311     0.77300
O939        O  0.81749101  0.19297008  0.38177005    -0.56500
C940        C  0.70881903  0.19864659  0.37875761     0.77300
C941        C  0.78274584  0.11009610  0.38330184     0.79700
Cd942      Cd  0.76839839  0.17125283  0.36119134     1.37500
O943        O  0.75798089  0.16473499  0.30910758    -0.55300
O944        O  0.76584953  0.11287137  0.36150383    -0.54100
C945        C  0.81223985  0.22048774  0.37362477     0.79600
O946        O  0.79092809  0.13505726  0.39583450    -0.56500
O947        O  0.80553957  0.17501188  0.32230896    -0.54900
O948        O  0.72967771  0.19130571  0.39648282    -0.54900
O949        O  0.78590418  0.22558912  0.36235704    -0.54100
C950        C  0.90225057  0.23049709  0.20025532     0.32500
C951        C  0.88314729  0.18301042  0.16508576     0.32500
C952        C  0.87600506  0.20926967  0.21160958    -0.03700
C953        C  0.88847120  0.24084058  0.17168488    -0.04500
C954        C  0.92791515  0.20756759  0.19165107    -0.04300
C955        C  0.86571232  0.18514503  0.19393265    -0.03700
C956        C  0.87866038  0.21631332  0.15359615    -0.04500
C957        C  0.91856852  0.18333492  0.17295951    -0.04300
C958        C  0.83884471  0.17264362  0.20681247    -0.29700
N959        N  0.83428251  0.18755090  0.23179008     0.16800
C960        C  0.85648503  0.21018166  0.23482303    -0.29700
H961        H  0.85791325  0.22640157  0.25245765     0.18700
C962        C  0.85584879  0.22819779  0.13593426    -0.28700
N963        N  0.85212821  0.25876800  0.14223834     0.15500
C964        C  0.87036455  0.26621260  0.16461083    -0.28700
C965        C  0.94481887  0.17783333  0.15599491    -0.29000
N966        N  0.96907794  0.19648148  0.16453000     0.16000
H967        H  0.94506047  0.16401717  0.13676168     0.18600
C968        C  0.95889901  0.21486740  0.18573970    -0.29000
H969        H  0.97164842  0.23524301  0.19358257     0.18600
H970        H  0.86749994  0.28746011  0.17683112     0.18600
H971        H  0.82271543  0.15510921  0.19864166     0.18700
H972        H  0.84074176  0.21484016  0.12179828     0.18600
C973        C  0.90660390  0.32367356  0.28789371     0.32500
C974        C  0.88797015  0.36663263  0.32738829     0.32500
C975        C  0.87805543  0.34316465  0.28012000    -0.03700
C976        C  0.89671581  0.31028236  0.31682744    -0.04500
C977        C  0.93163364  0.34864245  0.29594760    -0.04300
C978        C  0.86901665  0.36530265  0.29975463    -0.03700
C979        C  0.88818447  0.33234188  0.33712661    -0.04500
C980        C  0.92246369  0.37083350  0.31712731    -0.04300
C981        C  0.84335975  0.38069382  0.28869796    -0.29700
N982        N  0.83675321  0.36790438  0.26310585     0.16800
C983        C  0.85748605  0.34484847  0.25771857    -0.29700
H984        H  0.85762295  0.33071325  0.23866587     0.18700
C985        C  0.87554537  0.31645699  0.35982315    -0.28700
N986        N  0.87438573  0.28576480  0.35316780     0.15500
C987        C  0.88617353  0.28172229  0.32686508    -0.28700
C988        C  0.94922794  0.37531643  0.33368203    -0.29000
N989        N  0.97342336  0.35871878  0.32278442     0.16000
H990        H  0.94952127  0.38577961  0.35456974     0.18600
C991        C  0.96298039  0.34251132  0.30019569    -0.29000
H992        H  0.97559961  0.32323582  0.29065944     0.18600
H993        H  0.88356192  0.26018044  0.31493367     0.18600
H994        H  0.83071970  0.39985251  0.29834748     0.18700
H995        H  0.86471422  0.32656929  0.37841769     0.18600
O996        O  0.75406700  0.38868116  0.19271724    -0.55300
C997        C  0.69670757  0.36246818  0.12243015     0.77300
O998        O  0.78518153  0.42043559  0.10753781    -0.56500
C999        C  0.78357872  0.38693047  0.19647134     0.77300
C1000       C  0.79134202  0.32634404  0.12850286     0.79700
Cd1001     Cd  0.75864718  0.38326502  0.14021450     1.37500
O1002       O  0.70297005  0.36709745  0.14830456    -0.55300
O1003       O  0.76955120  0.32793109  0.14658942    -0.54100
C1004       C  0.77319882  0.44479516  0.11823912     0.79600
O1005       O  0.79700524  0.35057595  0.11401035    -0.56500
O1006       O  0.71761881  0.37083400  0.10489308    -0.54900
O1007       O  0.80074151  0.38564367  0.17471319    -0.54900
O1008       O  0.75403078  0.44084494  0.13845118    -0.54100
O1009       O  0.83103049  0.24320134  0.94508347    -0.55300
C1010       C  0.79987270  0.29348273  0.87339418     0.77300
O1011       O  0.87044996  0.21426247  0.86048137    -0.56500
C1012       C  0.83102649  0.21394944  0.94942996     0.77300
C1013       C  0.78169943  0.19177155  0.87970110     0.79700
Cd1014     Cd  0.83029159  0.23638852  0.89225630     1.37500
O1015       O  0.80828605  0.29036659  0.89887219    -0.55300
O1016       O  0.77798044  0.21413290  0.89686893    -0.54100
C1017       C  0.89410867  0.22743065  0.87177070     0.79600
O1018       O  0.80728695  0.19105990  0.86592761    -0.56500
O1019       O  0.80819523  0.27202924  0.85652181    -0.54900
O1020       O  0.83319048  0.19633363  0.92808205    -0.54900
O1021       O  0.88866315  0.24648412  0.89177404    -0.54100
C1022       C  0.67650738  0.08785102  0.95686084     0.32500
C1023       C  0.63447645  0.10791434  0.91736812     0.32500
C1024       C  0.65488582  0.11439098  0.96617517    -0.03700
C1025       C  0.69100519  0.10107248  0.92942793    -0.04500
C1026       C  0.65314225  0.06267714  0.94573062    -0.04300
C1027       C  0.63327917  0.12404026  0.94642609    -0.03700
C1028       C  0.66953639  0.11033746  0.90907114    -0.04500
C1029       C  0.63142722  0.07274713  0.92464101    -0.04300
C1030       C  0.61692980  0.14871530  0.95817423    -0.29700
N1031       N  0.62859569  0.15433252  0.98427442     0.16800
C1032       C  0.65188319  0.13382587  0.98942397    -0.29700
H1033       H  0.66587876  0.13365795  0.00848783     0.18700
C1034       C  0.68621839  0.12549541  0.88807336    -0.28700
N1035       N  0.71672219  0.12718953  0.89587156     0.15500
C1036       C  0.71987796  0.11338291  0.92127603    -0.28700
C1037       C  0.62883347  0.04771496  0.90581979    -0.29000
N1038       N  0.64622520  0.02357020  0.91509799     0.16000
H1039       H  0.61908401  0.04886920  0.88476309     0.18600
C1040       C  0.66102518  0.03241107  0.93897179    -0.29000
H1041       H  0.68045178  0.01978466  0.94807133     0.18600
H1042       H  0.74093186  0.11538206  0.93400895     0.18600
H1043       H  0.59844488  0.16198089  0.94833801     0.18700
H1044       H  0.67659989  0.13728060  0.86995216     0.18600
C1045       C  0.76841230  0.09185957  0.04521286     0.32500
C1046       C  0.81432458  0.11118138  0.08200634     0.32500
C1047       C  0.79045510  0.11774238  0.03453870    -0.03700
C1048       C  0.75653047  0.10591814  0.07344795    -0.04500
C1049       C  0.79102608  0.06643772  0.05459884    -0.04300
C1050       C  0.81372973  0.12811492  0.05309999    -0.03700
C1051       C  0.78026508  0.11579201  0.09234163    -0.04500
C1052       C  0.81436866  0.07592537  0.07421493    -0.04300
C1053       C  0.82626287  0.15532468  0.04129578    -0.29700
N1054       N  0.81248013  0.15998011  0.01597398     0.16800
C1055       C  0.79026459  0.13756320  0.01175194    -0.29700
H1056       H  0.77448671  0.13646221  0.99383715     0.18700
C1057       C  0.76745877  0.13852750  0.10969068    -0.28700
N1058       N  0.73704271  0.14225470  0.10242661     0.15500
C1059       C  0.73061121  0.12394802  0.07977860    -0.28700
C1060       C  0.81836652  0.05027678  0.09174619    -0.29000
N1061       N  0.79983228  0.02620478  0.08272881     0.16000
H1062       H  0.83066443  0.05054095  0.11173123     0.18600
C1063       C  0.78300546  0.03589509  0.06052070    -0.29000
H1064       H  0.76272837  0.02336235  0.05209617     0.18600
H1065       H  0.70974314  0.12645447  0.06697162     0.18600
H1066       H  0.84280112  0.17176648  0.05060548     0.18700
H1067       H  0.78020155  0.15357751  0.12431692     0.18600
O1068       O  0.62914657  0.29257060  0.09562006    -0.55300
C1069       C  0.60871846  0.21076804  0.04892480     0.77300
O1070       O  0.64560620  0.19999061  0.13135343    -0.56500
C1071       C  0.63428635  0.29896909  0.12140857     0.77300
C1072       C  0.55248786  0.22155005  0.12835594     0.79700
Cd1073     Cd  0.61312106  0.23725359  0.10448498     1.37500
O1074       O  0.60863544  0.24029631  0.05185224    -0.55300
O1075       O  0.55503083  0.24210628  0.10932383    -0.54100
C1076       C  0.66974422  0.20406997  0.11599406     0.79600
O1077       O  0.57767576  0.20950728  0.13705530    -0.56500
O1078       O  0.60818422  0.19465115  0.07108265    -0.54900
O1079       O  0.62649191  0.27823588  0.13907505    -0.54900
O1080       O  0.66833110  0.22474840  0.09721632    -0.54100
O1081       O  0.75663810  0.17581496  0.66969141    -0.55300
C1082       C  0.67302705  0.15304640  0.71286144     0.77300
O1083       O  0.66697538  0.19423986  0.63169206    -0.56500
C1084       C  0.76455050  0.18077300  0.64429067     0.77300
C1085       C  0.68702595  0.10095677  0.63158643     0.79700
Cd1086     Cd  0.70196641  0.15969088  0.65846523     1.37500
O1087       O  0.70236910  0.14839455  0.71029742    -0.55300
O1088       O  0.70652077  0.10272623  0.65174231    -0.54100
C1089       C  0.67225085  0.21766190  0.64762615     0.79600
O1090       O  0.67481948  0.12618891  0.62350676    -0.56500
O1091       O  0.65785599  0.15884340  0.69069274    -0.54900
O1092       O  0.74499783  0.17231785  0.62549588    -0.54900
O1093       O  0.69238729  0.21472504  0.66694556    -0.54100
C1094       C  0.54724804  0.22314953  0.79477559     0.30100
C1095       C  0.56203139  0.18364753  0.83780484     0.32500
C1096       C  0.57368978  0.20007289  0.78901805    -0.03700
C1097       C  0.55672026  0.23874272  0.82273202    -0.04500
C1098       C  0.51973814  0.20145197  0.80448654    -0.04300
C1099       C  0.58139338  0.18036968  0.81070375    -0.03700
C1100       C  0.56380555  0.21897376  0.84472718    -0.04500
C1101       C  0.52744804  0.18053358  0.82714888    -0.04300
C1102       C  0.60664657  0.16264669  0.80169180    -0.29700
N1103       N  0.61395776  0.17141487  0.77503365     0.16800
C1104       C  0.59401133  0.19408455  0.76701496    -0.29700
H1105       H  0.59459906  0.20562087  0.74674672     0.18700
C1106       C  0.57278504  0.23775429  0.86731234    -0.28700
N1107       N  0.57230459  0.26791207  0.85896691     0.15500
C1108       C  0.56217318  0.26887805  0.83195727    -0.28700
C1109       C  0.00162974  0.18603065  0.84763510    -0.29000
N1110       N  0.97847377  0.20446588  0.83782531     0.16000
H1111       H  0.00189265  0.17631400  0.86866908     0.18600
C1112       C  0.98843512  0.21811847  0.81382871    -0.29000
H1113       H  0.97669220  0.23782478  0.80457972     0.18600
H1114       H  0.56144180  0.28981401  0.81927946     0.18600
H1115       H  0.61889465  0.14507832  0.81362474     0.18700
H1116       H  0.58142152  0.23015803  0.88757930     0.18600
C1117       C  0.54845135  0.31837542  0.70463229     0.32500
C1118       C  0.56626724  0.36079573  0.66394097     0.32500
C1119       C  0.55984536  0.35096269  0.71550889    -0.03700
C1120       C  0.57494954  0.30859291  0.68440578    -0.04500
C1121       C  0.52236145  0.32729159  0.68350365    -0.04300
C1122       C  0.57026478  0.37225193  0.69476256    -0.03700
C1123       C  0.58454512  0.33008883  0.66433634    -0.04500
C1124       C  0.53160950  0.34908635  0.66288789    -0.04300
C1125       C  0.59433167  0.38973799  0.70750548    -0.29700
N1126       N  0.59608328  0.38223156  0.73511815     0.16800
C1127       C  0.57507754  0.35910099  0.74027305    -0.29700
H1128       H  0.57404003  0.34642698  0.75993875     0.18700
C1129       C  0.60918829  0.31686665  0.64947087    -0.28700
N1130       N  0.61365134  0.28782959  0.65962312     0.15500
C1131       C  0.59303545  0.28239049  0.68081786    -0.28700
C1132       C  0.00611429  0.35169606  0.64118802    -0.29000
N1133       N  0.98277075  0.33210000  0.64996086     0.16000
H1134       H  0.00607311  0.36449637  0.62156279     0.18600
C1135       C  0.99185281  0.31802092  0.67407327    -0.29000
H1136       H  0.97837186  0.29957488  0.68394178     0.18600
H1137       H  0.59152245  0.26094636  0.69278053     0.18600
H1138       H  0.61177652  0.40400818  0.69677985     0.18700
H1139       H  0.62298977  0.32734283  0.63271797     0.18600
O1140       O  0.72782025  0.35904428  0.84735305    -0.55300
C1141       C  0.65279900  0.39162788  0.80096634     0.77300
O1142       O  0.62948690  0.36370848  0.88314737    -0.56500
C1143       C  0.73690774  0.35739625  0.87273615     0.77300
C1144       C  0.66285477  0.44466198  0.88303190     0.79700
Cd1145     Cd  0.67622854  0.38479294  0.85791152     1.37500
O1146       O  0.68070056  0.40067769  0.80653418    -0.55300
O1147       O  0.67920689  0.44283208  0.86069839    -0.54100
C1148       C  0.63267056  0.33634868  0.87334639     0.79600
O1149       O  0.65492381  0.41927753  0.89464840    -0.56500
O1150       O  0.63710765  0.37997016  0.82094880    -0.54900
O1151       O  0.71971432  0.37089975  0.89081476    -0.54900
O1152       O  0.65676594  0.33111530  0.85842468    -0.54100
C1153       C  0.63855084  0.39364227  0.77349315    -0.10800
C1154       C  0.62030659  0.39042031  0.75408453    -0.12300
C1155       C  0.59034039  0.29199614  0.87115685    -0.10800
C1156       C  0.60883345  0.31272989  0.87644945    -0.12300
C1157       C  0.57155090  0.26509761  0.76512701    -0.10800
C1158       C  0.54453305  0.24698449  0.77094105     0.11300
C1159       C  0.51755300  0.25194401  0.75441883    -0.10800
C1160       C  0.51740912  0.27553906  0.73369349    -0.10800
C1161       C  0.54469168  0.29375463  0.72813454     0.11300
C1162       C  0.57175954  0.28735611  0.74410457    -0.10800
H1163       H  0.59310310  0.26169065  0.77686552     0.15300
H1164       H  0.99295412  0.24679143  0.76073172     0.15300
H1165       H  0.99319171  0.28750270  0.72510317     0.15300
H1166       H  0.59384584  0.29945562  0.73998004     0.15300
C1167       C  0.63828324  0.16003790  0.75787619    -0.10800
C1168       C  0.65700251  0.15376318  0.73955853    -0.12300
C1169       C  0.63616699  0.26642192  0.65052374    -0.10800
C1170       C  0.65415451  0.24549378  0.64597760    -0.12300
C1171       C  0.69659237  0.18423052  0.11754887    -0.10800
C1172       C  0.71673054  0.16539437  0.11248190    -0.12300
C1173       C  0.65299702  0.47411033  0.89459707    -0.10800
C1174       C  0.64437479  0.49817538  0.90540054    -0.12300
C1175       C  0.61848170  0.17742859  0.00329743    -0.10800
C1176       C  0.61169956  0.19533299  0.02208570    -0.12300
C1177       C  0.58492079  0.11283899  0.88444936    -0.10800
C1178       C  0.61281750  0.12491110  0.89687978     0.11300
C1179       C  0.62122082  0.15604754  0.89128404    -0.10800
C1180       C  0.60483104  0.17357051  0.87225844    -0.10800
C1181       C  0.57621685  0.16299882  0.86064792     0.11300
C1182       C  0.56651072  0.13195724  0.86657854    -0.10800
H1183       H  0.57723642  0.08911589  0.88865131     0.15300
H1184       H  0.64174796  0.16684456  0.90102600     0.15300
H1185       H  0.61555324  0.19553519  0.86608528     0.15300
H1186       H  0.54554282  0.12225127  0.85674060     0.15300
C1187       C  0.73148537  0.07185067  0.97399912    -0.10800
C1188       C  0.69943344  0.07710200  0.97973241     0.11300
C1189       C  0.68963253  0.07517025  0.00805278    -0.10800
C1190       C  0.71183983  0.07698502  0.02984123    -0.10800
C1191       C  0.74409542  0.08051377  0.02350228     0.11300
C1192       C  0.75371390  0.07395243  0.99568405    -0.10800
H1193       H  0.73968619  0.06763191  0.95273635     0.15300
H1194       H  0.66481493  0.07518742  0.01337626     0.15300
H1195       H  0.70351842  0.07684055  0.05139283     0.15300
H1196       H  0.77852022  0.07291818  0.99040136     0.15300
C1197       C  0.77949725  0.31926384  0.86360976    -0.13900
C1198       C  0.76464529  0.33889239  0.88149146    -0.29100
H1199       H  0.77323621  0.31927786  0.84138109     0.15100
H1200       H  0.77014191  0.33827304  0.90386881     0.15700
C1201       C  0.92560699  0.22040845  0.86222747    -0.10800
C1202       C  0.95063510  0.21282489  0.85209447    -0.12300
C1203       C  0.82069429  0.18316401  0.99632634    -0.10800
C1204       C  0.82690577  0.20031535  0.97687685    -0.12300
C1205       C  0.75863626  0.16717546  0.87826671    -0.10800
C1206       C  0.73910714  0.14771783  0.88432338    -0.12300
C1207       C  0.66821113  0.34519868  0.11285807    -0.13900
C1208       C  0.65127811  0.32754945  0.13086470    -0.29100
H1209       H  0.66529570  0.34173639  0.09025552     0.15100
H1210       H  0.65516946  0.33017701  0.15343338     0.15700
C1211       C  0.78079682  0.47566121  0.10783588    -0.10800
C1212       C  0.78566978  0.50167224  0.09870415    -0.12300
C1213       C  0.79765986  0.38448698  0.22391371    -0.10800
C1214       C  0.81433275  0.37811298  0.24361248    -0.12300
C1215       C  0.49790963  0.20422637  0.15081914    -0.10800
C1216       C  0.52241140  0.21205088  0.13973956    -0.12300
C1217       C  0.88110423  0.15917569  0.11574997    -0.10800
C1218       C  0.87293655  0.15700405  0.14443552     0.11300
C1219       C  0.85358186  0.13156987  0.15241396    -0.10800
C1220       C  0.83600545  0.11501198  0.13212285    -0.10800
C1221       C  0.83955189  0.12183037  0.10329410     0.11300
C1222       C  0.86552262  0.14068887  0.09555432    -0.10800
H1223       H  0.89822508  0.17643255  0.10873735     0.15300
H1224       H  0.85126108  0.12479144  0.17414383     0.15300
H1225       H  0.81836001  0.09825073  0.13907711     0.15300
H1226       H  0.87331793  0.14207259  0.07395049     0.15300
C1227       C  0.81057804  0.29908924  0.12680387    -0.10800
C1228       C  0.82903708  0.27870780  0.13181865    -0.12300
C1229       C  0.91579299  0.28743430  0.21475828    -0.10800
C1230       C  0.91342695  0.25546042  0.22135005     0.11300
C1231       C  0.92094664  0.24660259  0.24901051    -0.10800
C1232       C  0.92302697  0.26907056  0.27050050    -0.10800
C1233       C  0.91657334  0.30056330  0.26479042     0.11300
C1234       C  0.91729513  0.30987277  0.23638987    -0.10800
H1235       H  0.91553553  0.29534785  0.19319932     0.15300
H1236       H  0.92290742  0.22211935  0.25435489     0.15300
H1237       H  0.92851892  0.26145250  0.29155088     0.15300
H1238       H  0.91631698  0.33440369  0.23098784     0.15300
C1239       C  0.79708497  0.17359213  0.27372110    -0.10800
C1240       C  0.81238983  0.17931673  0.25281823    -0.12300
C1241       C  0.83615854  0.24423320  0.37390709    -0.10800
C1242       C  0.85496606  0.26377485  0.36654675    -0.12300
C1243       C  0.66370493  0.23264625  0.36772098    -0.13900
C1244       C  0.68163825  0.21829081  0.38706673    -0.29100
H1245       H  0.66681830  0.22694430  0.34550191     0.15100
H1246       H  0.67945380  0.22480276  0.40919775     0.15700
C1247       C  0.52532702  0.34130132  0.35025294    -0.10800
C1248       C  0.50069831  0.34941658  0.34012457    -0.12300
C1249       C  0.80173617  0.05575392  0.40312796    -0.10800
C1250       C  0.79279091  0.08009940  0.39332095    -0.12300
C1251       C  0.86516166  0.43563165  0.37779051    -0.10800
C1252       C  0.83544039  0.42452236  0.38711132     0.11300
C1253       C  0.82490761  0.39529975  0.37702116    -0.10800
C1254       C  0.84141646  0.37896025  0.35692962    -0.10800
C1255       C  0.87169795  0.38843039  0.34847138     0.11300
C1256       C  0.88351746  0.41734758  0.35885088    -0.10800
H1257       H  0.87456860  0.45760943  0.38575001     0.15300
H1258       H  0.80341688  0.38458080  0.38489295     0.15300
H1259       H  0.83060902  0.35775386  0.34857241     0.15300
H1260       H  0.90639823  0.42593174  0.35217110     0.15300
C1261       C  0.70933186  0.40624467  0.37646313    -0.10800
C1262       C  0.68967202  0.38679595  0.37070579    -0.12300
C1263       C  0.67319606  0.04730740  0.60615493    -0.10800
C1264       C  0.67925447  0.07160006  0.61821737    -0.12300
C1265       C  0.60370750  0.36346389  0.46830978    -0.10800
C1266       C  0.60746413  0.38203837  0.48736282    -0.12300
C1267       C  0.60206109  0.38642126  0.59440080    -0.10800
C1268       C  0.61184319  0.41765802  0.59937202     0.11300
C1269       C  0.60097062  0.43206651  0.62434589    -0.10800
C1270       C  0.58393923  0.41484061  0.64464032    -0.10800
C1271       C  0.57663612  0.38292801  0.64018212     0.11300
C1272       C  0.58291793  0.37029327  0.61341062    -0.10800
H1273       H  0.61076175  0.37345730  0.57637979     0.15300
H1274       H  0.60658304  0.45591263  0.62931894     0.15300
H1275       H  0.57723194  0.42645201  0.66405387     0.15300
H1276       H  0.57610770  0.34640483  0.60837892     0.15300
C1277       C  0.73869589  0.46046854  0.52613931    -0.10800
C1278       C  0.70646683  0.46065405  0.51920391     0.11300
C1279       C  0.69824327  0.47128949  0.49224910    -0.10800
C1280       C  0.72106039  0.47395062  0.47116856    -0.10800
C1281       C  0.75226140  0.46508347  0.47644325     0.11300
C1282       C  0.76152278  0.46253080  0.50481014    -0.10800
H1283       H  0.74620232  0.45674100  0.54764183     0.15300
H1284       H  0.67402609  0.47622666  0.48701297     0.15300
H1285       H  0.71382206  0.48150781  0.45049184     0.15300
H1286       H  0.78606327  0.45958027  0.51021482     0.15300
C1287       C  0.80083255  0.20603340  0.61050121    -0.13900
C1288       C  0.79339428  0.19885985  0.63733726    -0.29100
H1289       H  0.78951598  0.19337788  0.59323004     0.15100
H1290       H  0.80507829  0.21118648  0.65460024     0.15700
C1291       C  0.92987412  0.31826465  0.62415036    -0.10800
C1292       C  0.95463739  0.32501355  0.63544116    -0.12300
C1293       C  0.83005340  0.36032480  0.48839228    -0.10800
C1294       C  0.83700210  0.34191748  0.50654392    -0.12300
C1295       C  0.73038256  0.36328759  0.59599022    -0.10800
C1296       C  0.75194116  0.34640689  0.60162491    -0.12300
O1297       O  0.82617475  0.74826802  0.57896546    -0.55300
C1298       C  0.84513843  0.83263851  0.53783807     0.77300
O1299       O  0.80617937  0.83923157  0.61975203    -0.56500
C1300       C  0.81932952  0.74005635  0.60389518     0.77300
C1301       C  0.90141055  0.81707268  0.61451274     0.79700
Cd1302     Cd  0.84004464  0.80316612  0.59159803     1.37500
O1303       O  0.84644869  0.80303596  0.53913990    -0.55300
O1304       O  0.89811386  0.80086077  0.59222703    -0.54100
C1305       C  0.78298240  0.83600166  0.60310750     0.79600
O1306       O  0.87653744  0.82576934  0.62691905    -0.56500
O1307       O  0.84345734  0.84761482  0.56083535    -0.54900
O1308       O  0.82514503  0.75983249  0.62328626    -0.54900
O1309       O  0.78564864  0.81649073  0.58316476    -0.54100
C1310       C  0.68455182  0.95652194  0.53964457     0.32500
C1311       C  0.63808205  0.93685903  0.57613779     0.32500
C1312       C  0.65411919  0.94413854  0.52571250    -0.03700
C1313       C  0.69312778  0.92944263  0.55912691    -0.04500
C1314       C  0.67263386  0.98108937  0.56043081    -0.04300
C1315       C  0.62994702  0.93471456  0.54417583    -0.03700
C1316       C  0.66975666  0.91986797  0.57784190    -0.04500
C1317       C  0.64916852  0.97163620  0.57959921    -0.04300
C1318       C  0.61015753  0.91489806  0.52871458    -0.29700
N1319       N  0.62243061  0.91085412  0.50262642     0.16800
C1320       C  0.64944419  0.92768522  0.50080807    -0.29700
H1321       H  0.66622353  0.92546242  0.48367685     0.18700
C1322       C  0.68261424  0.89746189  0.59510079    -0.28700
N1323       N  0.71277778  0.89307167  0.58682510     0.15500
C1324       C  0.71934410  0.91188682  0.56471201    -0.28700
C1325       C  0.64790611  0.49235191  0.59995111    -0.29000
N1326       N  0.66883711  0.51448009  0.59098145     0.16000
H1327       H  0.63397179  0.49515500  0.61879636     0.18600
C1328       C  0.68362007  0.50403023  0.56765587    -0.29000
H1329       H  0.70231977  0.51634833  0.55661116     0.18600
H1330       H  0.74174954  0.91260487  0.55380443     0.18600
H1331       H  0.59002272  0.90185640  0.53654812     0.18700
H1332       H  0.67113412  0.88562488  0.61251027     0.18600
C1333       C  0.78026264  0.96156273  0.45496744     0.32500
C1334       C  0.82050673  0.94326907  0.41307289     0.32500
C1335       C  0.80180360  0.93434264  0.46211676    -0.03700
C1336       C  0.76470178  0.94996360  0.42729740    -0.04500
C1337       C  0.80358071  0.98703880  0.44466553    -0.04300
C1338       C  0.82247165  0.92545324  0.44105577    -0.03700
C1339       C  0.78525809  0.94196500  0.40571425    -0.04500
C1340       C  0.82441471  0.97794439  0.42232633    -0.04300
C1341       C  0.83865381  0.89973541  0.45062160    -0.29700
N1342       N  0.82785414  0.89288354  0.47674615     0.16800
C1343       C  0.80523483  0.91349933  0.48395975    -0.29700
H1344       H  0.79181101  0.91260581  0.50338740     0.18700
C1345       C  0.76770529  0.92889528  0.38407633    -0.28700
N1346       N  0.73754797  0.92668041  0.39275022     0.15500
C1347       C  0.73537023  0.93863698  0.41921910    -0.28700
C1348       C  0.82417061  0.50092976  0.40681711    -0.29000
N1349       N  0.80878636  0.52450725  0.42007315     0.16000
H1350       H  0.83350236  0.50257357  0.38558384     0.18600
C1351       C  0.79373389  0.51270802  0.44267723    -0.29000
H1352       H  0.77541489  0.52491641  0.45410435     0.18600
H1353       H  0.71467189  0.93632530  0.43246000     0.18600
H1354       H  0.85630005  0.88657031  0.43924971     0.18700
H1355       H  0.77652423  0.91861283  0.36470697     0.18600
O1356       O  0.64208941  0.77108152  0.39679676    -0.55300
C1357       C  0.60970680  0.85281151  0.43720806     0.77300
O1358       O  0.64965919  0.86265946  0.35579222    -0.56500
C1359       C  0.64797069  0.76222357  0.37175318     0.77300
C1360       C  0.55954785  0.83502843  0.35753176     0.79700
Cd1361     Cd  0.61964970  0.82309404  0.38333370     1.37500
O1362       O  0.60758180  0.82319230  0.43527641    -0.55300
O1363       O  0.56137425  0.81931823  0.38002245    -0.54100
C1364       C  0.67195930  0.86365116  0.37350023     0.79600
O1365       O  0.58522839  0.84285501  0.34580334    -0.56500
O1366       O  0.61461276  0.86766093  0.41471271    -0.54900
O1367       O  0.63783971  0.77959981  0.35237740    -0.54900
O1368       O  0.67123137  0.84416796  0.39334123    -0.54100
O1369       O  0.72021917  0.69344944  0.35252085    -0.55300
C1370       C  0.79774349  0.66017661  0.30972190     0.77300
O1371       O  0.81320819  0.69828446  0.39384059    -0.56500
C1372       C  0.71190001  0.69965003  0.37762260     0.77300
C1373       C  0.78459725  0.60956821  0.38997625     0.79700
Cd1374     Cd  0.77236707  0.67002327  0.36540564     1.37500
O1375       O  0.76848031  0.65587518  0.31393748    -0.55300
O1376       O  0.76547922  0.61240737  0.36970739    -0.54100
C1377       C  0.81477566  0.72083442  0.37670025     0.79600
O1378       O  0.79601323  0.63455432  0.40036944    -0.56500
O1379       O  0.81436265  0.66750221  0.33081521    -0.54900
O1380       O  0.72973309  0.68962105  0.39680589    -0.54900
O1381       O  0.79541237  0.72079267  0.35654142    -0.54100
C1382       C  0.90017731  0.73136192  0.20278794     0.32500
C1383       C  0.88162604  0.68385234  0.16660956     0.32500
C1384       C  0.87922743  0.70572560  0.21558876    -0.03700
C1385       C  0.88041076  0.74114373  0.17730556    -0.04500
C1386       C  0.92669879  0.71270923  0.18921032    -0.04300
C1387       C  0.87042116  0.68095999  0.19783787    -0.03700
C1388       C  0.87107286  0.71708671  0.15892713    -0.04500
C1389       C  0.91783418  0.68846011  0.17043297    -0.04300
C1390       C  0.85225060  0.66082268  0.21434419    -0.29700
N1391       N  0.84836942  0.67407186  0.24015232     0.16800
C1392       C  0.86462633  0.70135978  0.24121538    -0.29700
H1393       H  0.86486806  0.71726646  0.25911409     0.18700
C1394       C  0.84904033  0.72931839  0.14070216    -0.28700
N1395       N  0.84491214  0.75975484  0.14779007     0.15500
C1396       C  0.86301786  0.76691896  0.17039315    -0.28700
C1397       C  0.94444731  0.68270722  0.15411799    -0.29000
N1398       N  0.96788103  0.70262544  0.16232675     0.16000
H1399       H  0.94634779  0.66698761  0.13627416     0.18600
C1400       C  0.95722728  0.72116726  0.18328758    -0.29000
H1401       H  0.96961350  0.74159656  0.19146712     0.18600
H1402       H  0.86133500  0.78860893  0.18216597     0.18600
H1403       H  0.84227047  0.63834473  0.20841771     0.18700
H1404       H  0.83550942  0.71658019  0.12492973     0.18600
C1405       C  0.90721195  0.82441270  0.29094350     0.32500
C1406       C  0.89060789  0.86691421  0.33147764     0.32500
C1407       C  0.87874550  0.84453864  0.28424636    -0.03700
C1408       C  0.89795887  0.81060324  0.31990323    -0.04500
C1409       C  0.93298336  0.84876273  0.29882846    -0.04300
C1410       C  0.87074380  0.86642459  0.30445473    -0.03700
C1411       C  0.89055036  0.83241685  0.34076217    -0.04500
C1412       C  0.92474754  0.87076338  0.32048856    -0.04300
C1413       C  0.84516747  0.88266626  0.29435542    -0.29700
N1414       N  0.83752166  0.87056179  0.26875148     0.16800
C1415       C  0.85749919  0.84712894  0.26245636    -0.29700
H1416       H  0.85665533  0.83339788  0.24317923     0.18700
C1417       C  0.87898198  0.81625347  0.36375894    -0.28700
N1418       N  0.87713753  0.78567597  0.35674847     0.15500
C1419       C  0.88773829  0.78193827  0.32997145    -0.28700
C1420       C  0.95175485  0.87427842  0.33684203    -0.29000
N1421       N  0.97529002  0.85710827  0.32558132     0.16000
H1422       H  0.95248242  0.88432977  0.35788954     0.18600
C1423       C  0.96420035  0.84169867  0.30277256    -0.29000
H1424       H  0.97617443  0.82225072  0.29285136     0.18600
H1425       H  0.88470933  0.76055198  0.31787188     0.18600
H1426       H  0.83334614  0.90197022  0.30461221     0.18700
H1427       H  0.86934963  0.82613127  0.38298185     0.18600
O1428       O  0.75494348  0.89789608  0.19993513    -0.55300
C1429       C  0.69177994  0.86845979  0.13847641     0.77300
O1430       O  0.77879466  0.91992609  0.10970595    -0.56500
C1431       C  0.78357585  0.89083135  0.20332411     0.77300
C1432       C  0.78683056  0.82943548  0.13390135     0.79700
Cd1433     Cd  0.75642725  0.88726236  0.14787450     1.37500
O1434       O  0.70247840  0.87342189  0.16302453    -0.55300
O1435       O  0.76226072  0.83032244  0.14889829    -0.54100
C1436       C  0.77343058  0.94595065  0.12151574     0.79600
O1437       O  0.79628057  0.85492067  0.12319635    -0.56500
O1438       O  0.70966715  0.87583946  0.11807363    -0.54900
O1439       O  0.79922370  0.88415988  0.18148371    -0.54900
O1440       O  0.75876953  0.94524955  0.14479536    -0.54100
O1441       O  0.84072127  0.73398839  0.93578544    -0.55300
C1442       C  0.80276983  0.78593524  0.86510777     0.77300
O1443       O  0.86947318  0.70468754  0.84924088    -0.56500
C1444       C  0.83899094  0.70472706  0.94005461     0.77300
C1445       C  0.78221824  0.68440322  0.87160136     0.79700
Cd1446     Cd  0.83231237  0.72776844  0.88305130     1.37500
O1447       O  0.80959545  0.78122888  0.89075499    -0.55300
O1448       O  0.77971492  0.70635384  0.88942392    -0.54100
C1449       C  0.89411320  0.71717297  0.85938332     0.79600
O1450       O  0.80723593  0.68348268  0.85704376    -0.56500
O1451       O  0.81205141  0.76543523  0.84769918    -0.54900
O1452       O  0.83576431  0.68738139  0.91860536    -0.54900
O1453       O  0.89052049  0.73636960  0.87961491    -0.54100
C1454       C  0.67426044  0.59241436  0.95297583     0.32500
C1455       C  0.63301199  0.61062746  0.91221441     0.32500
C1456       C  0.65542416  0.62187313  0.95966503    -0.03700
C1457       C  0.68893539  0.60028592  0.92394692    -0.04500
C1458       C  0.64822253  0.56824123  0.94530562    -0.04300
C1459       C  0.63422819  0.63063249  0.93921402    -0.03700
C1460       C  0.66779365  0.60857450  0.90297079    -0.04500
C1461       C  0.62687261  0.57732183  0.92358543    -0.04300
C1462       C  0.61834604  0.65642695  0.94927339    -0.29700
N1463       N  0.62984151  0.66360978  0.97511861     0.16800
C1464       C  0.65255434  0.64294344  0.98174708    -0.29700
H1465       H  0.66549486  0.64310527  0.00140285     0.18700
C1466       C  0.68510528  0.62060094  0.88069238    -0.28700
N1467       N  0.71567334  0.62183974  0.88833572     0.15500
C1468       C  0.71821086  0.61060554  0.91479684    -0.28700
C1469       C  0.62140638  0.55036305  0.90772737    -0.29000
N1470       N  0.63679455  0.52614188  0.91933632     0.16000
H1471       H  0.61168979  0.54978411  0.88661216     0.18600
C1472       C  0.65294706  0.53667821  0.94194151    -0.29000
H1473       H  0.67165200  0.52376394  0.95188068     0.18600
H1474       H  0.73915046  0.61359257  0.92756199     0.18600
H1475       H  0.59954781  0.66869587  0.93885048     0.18700
H1476       H  0.67596272  0.63127873  0.86182116     0.18600
C1477       C  0.76934021  0.59688538  0.03888796     0.32500
C1478       C  0.81360179  0.61594430  0.07758510     0.32500
C1479       C  0.80037017  0.61013816  0.02627087    -0.03700
C1480       C  0.75961434  0.62359045  0.05889978    -0.04500
C1481       C  0.78064388  0.57190874  0.05901247    -0.04300
C1482       C  0.82329401  0.62069067  0.04614670    -0.03700
C1483       C  0.78205763  0.63320959  0.07854275    -0.04500
C1484       C  0.80309161  0.58118913  0.07877310    -0.04300
C1485       C  0.83848250  0.64605628  0.03322775    -0.29700
N1486       N  0.82737297  0.64950157  0.00673220     0.16800
C1487       C  0.80375977  0.62869460  0.00267878    -0.29700
H1488       H  0.78755298  0.62964301  0.98510237     0.18700
C1489       C  0.76925179  0.65734439  0.09417788    -0.28700
N1490       N  0.73977067  0.66209096  0.08457906     0.15500
C1491       C  0.73373744  0.64225825  0.06283604    -0.28700
C1492       C  0.80788206  0.55555162  0.09596972    -0.29000
N1493       N  0.78912170  0.53154185  0.08667725     0.16000
H1494       H  0.82315037  0.55468332  0.11420737     0.18600
C1495       C  0.77237752  0.54133389  0.06423003    -0.29000
H1496       H  0.75483839  0.52747108  0.05303201     0.18600
H1497       H  0.71208479  0.64185390  0.05083628     0.18600
H1498       H  0.85363357  0.66323521  0.04337056     0.18700
H1499       H  0.78033477  0.67049332  0.11114889     0.18600
O1500       O  0.62402093  0.80603545  0.07923011    -0.55300
C1501       C  0.60781948  0.72165223  0.03779599     0.77300
O1502       O  0.64559854  0.71324882  0.11642598    -0.56500
C1503       C  0.63313041  0.81407330  0.10370784     0.77300
C1504       C  0.55303817  0.73576583  0.11844866     0.79700
Cd1505     Cd  0.61195722  0.75114499  0.09193468     1.37500
O1506       O  0.60392228  0.75097509  0.03967404    -0.55300
O1507       O  0.55418526  0.75218920  0.09634824    -0.54100
C1508       C  0.66955817  0.71970877  0.10146095     0.79600
O1509       O  0.57896757  0.72790647  0.12921132    -0.56500
O1510       O  0.61082895  0.70677671  0.06046826    -0.54900
O1511       O  0.62888731  0.79429622  0.12316600    -0.54900
O1512       O  0.66743051  0.74200761  0.08432640    -0.54100
O1513       O  0.75647744  0.67606211  0.66590368    -0.55300
C1514       C  0.67006526  0.65185690  0.70447863     0.77300
O1515       O  0.66837390  0.69143232  0.62287926    -0.56500
C1516       C  0.76534278  0.68250790  0.64103013     0.77300
C1517       C  0.69150784  0.59797272  0.62665578     0.79700
Cd1518     Cd  0.70296503  0.65818156  0.65196141     1.37500
O1519       O  0.69986655  0.64958002  0.70402086    -0.55300
O1520       O  0.70860506  0.60087916  0.64841959    -0.54100
C1521       C  0.67061200  0.71441219  0.63988477     0.79600
O1522       O  0.68118011  0.62276667  0.61582815    -0.56500
O1523       O  0.65627363  0.65479578  0.68109756    -0.54900
O1524       O  0.74704958  0.67408277  0.62123832    -0.54900
O1525       O  0.68877196  0.71171978  0.66073030    -0.54100
C1526       C  0.54544322  0.72495808  0.78937533     0.30100
C1527       C  0.56112770  0.68433855  0.83113041     0.32500
C1528       C  0.57045047  0.70077780  0.78201335    -0.03700
C1529       C  0.55705853  0.73974282  0.81700772    -0.04500
C1530       C  0.51759168  0.70424963  0.80018385    -0.04300
C1531       C  0.57864415  0.68055008  0.80306700    -0.03700
C1532       C  0.56474714  0.71939738  0.83830329    -0.04500
C1533       C  0.52581366  0.68272996  0.82226385    -0.04300
C1534       C  0.60299278  0.66234249  0.79283194    -0.29700
N1535       N  0.60927855  0.67128925  0.76602241     0.16800
C1536       C  0.58956516  0.69459704  0.75910645    -0.29700
H1537       H  0.58971064  0.70662678  0.73907328     0.18700
C1538       C  0.57602176  0.73735317  0.86057882    -0.28700
N1539       N  0.57576375  0.76770297  0.85280194     0.15500
C1540       C  0.56394456  0.76953375  0.82640313    -0.28700
C1541       C  0.00106450  0.67604107  0.83656506    -0.29000
N1542       N  0.97787643  0.69304996  0.82498412     0.16000
H1543       H  0.99994449  0.66653248  0.85766721     0.18600
C1544       C  0.98936808  0.70778351  0.80208939    -0.29000
H1545       H  0.97760202  0.72723405  0.79241084     0.18600
H1546       H  0.56294172  0.79076022  0.81413860     0.18600
H1547       H  0.61554210  0.64448758  0.80414414     0.18700
H1548       H  0.58599776  0.72898117  0.88007693     0.18600
C1549       C  0.55111125  0.81930775  0.69911321     0.32500
C1550       C  0.57000213  0.86109626  0.65845572     0.32500
C1551       C  0.56418959  0.85119581  0.70994676    -0.03700
C1552       C  0.57685157  0.80837747  0.67850140    -0.04500
C1553       C  0.52522503  0.82936382  0.67838154    -0.04300
C1554       C  0.57492698  0.87218606  0.68924195    -0.03700
C1555       C  0.58705119  0.82958756  0.65834914    -0.04500
C1556       C  0.53500749  0.85084038  0.65774288    -0.04300
C1557       C  0.59905177  0.88963363  0.70190626    -0.29700
N1558       N  0.60070249  0.88212581  0.72954755     0.16800
C1559       C  0.57966764  0.85898413  0.73466014    -0.29700
H1560       H  0.57851396  0.84627753  0.75430679     0.18700
C1561       C  0.61047184  0.81511709  0.64280658    -0.28700
N1562       N  0.61346885  0.78566815  0.65251666     0.15500
C1563       C  0.59329512  0.78120741  0.67425324    -0.28700
C1564       C  0.01150135  0.85273510  0.63967648    -0.29000
N1565       N  0.98685505  0.83507370  0.64883195     0.16000
H1566       H  0.01160746  0.86689253  0.62083158     0.18600
C1567       C  0.99533786  0.81956733  0.67232294    -0.29000
H1568       H  0.97964334  0.80375233  0.68315113     0.18600
H1569       H  0.59083773  0.75971519  0.68603968     0.18600
H1570       H  0.61626327  0.90419726  0.69118526     0.18700
H1571       H  0.62438977  0.82495933  0.62582367     0.18600
O1572       O  0.73402624  0.85672873  0.84025639    -0.55300
C1573       C  0.65697230  0.89237271  0.79578976     0.77300
O1574       O  0.63995215  0.85907425  0.88081508    -0.56500
C1575       C  0.74115784  0.85133977  0.86570375     0.77300
C1576       C  0.67230642  0.94346856  0.87640972     0.79700
Cd1577     Cd  0.68231563  0.88273332  0.85152174     1.37500
O1578       O  0.68649952  0.89478025  0.79960692    -0.55300
O1579       O  0.68958483  0.94064427  0.85472202    -0.54100
C1580       C  0.63806024  0.83464873  0.86565598     0.79600
O1581       O  0.66217820  0.91858115  0.88756133    -0.56500
O1582       O  0.64024376  0.88654839  0.81717909    -0.54900
O1583       O  0.72306240  0.86288509  0.88415023    -0.54900
O1584       O  0.65738389  0.83201485  0.84549499    -0.54100
C1585       C  0.64224714  0.89439232  0.76851636    -0.10800
C1586       C  0.62437832  0.89087003  0.74886822    -0.12300
C1587       C  0.59485871  0.79118469  0.86459092    -0.10800
C1588       C  0.61394077  0.81149474  0.86941603    -0.12300
C1589       C  0.57141504  0.76541424  0.75949609    -0.10800
C1590       C  0.54327413  0.74937766  0.76606630     0.11300
C1591       C  0.51607861  0.75679174  0.75072174    -0.10800
C1592       C  0.51726660  0.78018797  0.72983204    -0.10800
C1593       C  0.54600818  0.79526397  0.72274074     0.11300
C1594       C  0.57288233  0.78706677  0.73809926    -0.10800
H1595       H  0.59299074  0.76053259  0.77073891     0.15300
H1596       H  0.99833489  0.73611327  0.74973447     0.15300
H1597       H  0.99923312  0.77670822  0.71453009     0.15300
H1598       H  0.59567518  0.79746557  0.73337213     0.15300
C1599       C  0.63309137  0.65998618  0.74819664    -0.10800
C1600       C  0.65207839  0.65340935  0.73015774    -0.12300
C1601       C  0.63438532  0.76308439  0.64255593    -0.10800
C1602       C  0.65167448  0.74165473  0.63757675    -0.12300
C1603       C  0.69711151  0.70089240  0.10151979    -0.10800
C1604       C  0.71811548  0.68350960  0.09532204    -0.12300
C1605       C  0.66363465  0.97342090  0.88781541    -0.10800
C1606       C  0.65488662  0.99705081  0.89938053    -0.12300
C1607       C  0.61870538  0.68705613  0.99327127    -0.10800
C1608       C  0.61107430  0.70534910  0.01144805    -0.12300
C1609       C  0.58215508  0.61589221  0.88126839    -0.10800
C1610       C  0.61204917  0.62655368  0.89061311     0.11300
C1611       C  0.62288036  0.65579432  0.88131786    -0.10800
C1612       C  0.60662587  0.67246039  0.86166545    -0.10800
C1613       C  0.57620695  0.66345902  0.85315508     0.11300
C1614       C  0.56402370  0.63458402  0.86286342    -0.10800
H1615       H  0.57256807  0.59384443  0.88859531     0.15300
H1616       H  0.64471818  0.66595711  0.88909695     0.15300
H1617       H  0.61815812  0.69310893  0.85324347     0.15300
H1618       H  0.54119275  0.62621903  0.85578059     0.15300
C1619       C  0.72845500  0.57390794  0.96986344    -0.10800
C1620       C  0.69724986  0.58244700  0.97612121     0.11300
C1621       C  0.68861770  0.58378611  0.00477079    -0.10800
C1622       C  0.71190744  0.58485340  0.02570507    -0.10800
C1623       C  0.74403183  0.58552492  0.01811853     0.11300
C1624       C  0.75182063  0.57623447  0.99051753    -0.10800
H1625       H  0.73527621  0.56682195  0.94881936     0.15300
H1626       H  0.66420006  0.58654276  0.01082920     0.15300
H1627       H  0.70479903  0.58756732  0.04752318     0.15300
H1628       H  0.77606194  0.57220044  0.98453940     0.15300
C1629       C  0.78320623  0.81256172  0.85571906    -0.13900
C1630       C  0.76775505  0.83111579  0.87410928    -0.29100
H1631       H  0.77828580  0.81436475  0.83329324     0.15100
H1632       H  0.77191069  0.82846027  0.89658244     0.15700
C1633       C  0.92470558  0.70918650  0.84850679    -0.10800
C1634       C  0.94948398  0.70125135  0.83825882    -0.12300
C1635       C  0.83510519  0.67328098  0.98740910    -0.10800
C1636       C  0.83905519  0.69082522  0.96772173    -0.12300
C1637       C  0.75845190  0.66045518  0.87008555    -0.10800
C1638       C  0.73843812  0.64147459  0.87612837    -0.12300
C1639       C  0.66163596  0.85143094  0.13433964    -0.13900
C1640       C  0.65114993  0.84342676  0.10848947    -0.29100
H1641       H  0.65148007  0.84013030  0.15277303     0.15100
H1642       H  0.66091097  0.85498482  0.09002573     0.15700
C1643       C  0.78388934  0.97494794  0.10909348    -0.10800
C1644       C  0.79235050  0.99882824  0.09768143    -0.12300
C1645       C  0.79806417  0.88861641  0.23055666    -0.10800
C1646       C  0.81492392  0.88173984  0.24993850    -0.12300
C1647       C  0.49848448  0.71901957  0.14091888    -0.10800
C1648       C  0.52352753  0.72615597  0.13062174    -0.12300
C1649       C  0.88199193  0.65581447  0.11818510    -0.10800
C1650       C  0.86861798  0.65947404  0.14532346     0.11300
C1651       C  0.83869479  0.64562882  0.14968436    -0.10800
C1652       C  0.82372647  0.62781571  0.12884539    -0.10800
C1653       C  0.83589082  0.62642963  0.10135126     0.11300
C1654       C  0.86636197  0.63871455  0.09681064    -0.10800
H1655       H  0.90328543  0.66811315  0.11242255     0.15300
H1656       H  0.82466261  0.65099604  0.16791319     0.15300
H1657       H  0.80046920  0.61833168  0.13331843     0.15300
H1658       H  0.87776876  0.63644109  0.07654358     0.15300
C1659       C  0.80491177  0.80138311  0.13191605    -0.10800
C1660       C  0.82262549  0.78033328  0.13693982    -0.12300
C1661       C  0.91257314  0.78850935  0.21725764    -0.10800
C1662       C  0.91144568  0.75647510  0.22379351     0.11300
C1663       C  0.92118771  0.74781669  0.25096266    -0.10800
C1664       C  0.92343104  0.77018481  0.27255260    -0.10800
C1665       C  0.91608210  0.80155147  0.26724949     0.11300
C1666       C  0.91512517  0.81092801  0.23886264    -0.10800
H1667       H  0.91077994  0.79640077  0.19574670     0.15300
H1668       H  0.92479840  0.72347222  0.25601268     0.15300
H1669       H  0.92990024  0.76260589  0.29340448     0.15300
H1670       H  0.91368158  0.83545337  0.23355924     0.15300
C1671       C  0.81207238  0.65885812  0.28226835    -0.10800
C1672       C  0.82824491  0.66366399  0.26174025    -0.12300
C1673       C  0.83886747  0.74442685  0.37790605    -0.10800
C1674       C  0.85786476  0.76379634  0.37049194    -0.12300
C1675       C  0.66770371  0.73462474  0.36492830    -0.13900
C1676       C  0.68436922  0.71949405  0.38468500    -0.29100
H1677       H  0.67207351  0.72960051  0.34275110     0.15100
H1678       H  0.68053217  0.72506694  0.40683601     0.15700
C1679       C  0.52969668  0.84438401  0.34607201    -0.10800
C1680       C  0.50522425  0.85282621  0.33572237    -0.12300
C1681       C  0.80163370  0.55392812  0.40874649    -0.10800
C1682       C  0.79372375  0.57928586  0.40022968    -0.12300
C1683       C  0.86952348  0.93806677  0.37962406    -0.10800
C1684       C  0.84080410  0.92683415  0.39099323     0.11300
C1685       C  0.83070961  0.89656073  0.38341375    -0.10800
C1686       C  0.84621831  0.87940559  0.36335001    -0.10800
C1687       C  0.87568199  0.88893745  0.35301161     0.11300
C1688       C  0.88730676  0.91882927  0.36106051    -0.10800
H1689       H  0.87852434  0.96096007  0.38557722     0.15300
H1690       H  0.80992106  0.88597017  0.39280425     0.15300
H1691       H  0.83505092  0.85784791  0.35624381     0.15300
H1692       H  0.90938726  0.92753167  0.35257935     0.15300
C1693       C  0.71512894  0.90665424  0.38045066    -0.10800
C1694       C  0.69584054  0.88740149  0.37327284    -0.12300
C1695       C  0.67620401  0.54296805  0.60445467    -0.10800
C1696       C  0.68355391  0.56781689  0.61492907    -0.12300
C1697       C  0.60870582  0.86963681  0.46359221    -0.10800
C1698       C  0.61315883  0.88802756  0.48271388    -0.12300
C1699       C  0.60592676  0.88917456  0.58981799    -0.10800
C1700       C  0.61385015  0.92076309  0.59550392     0.11300
C1701       C  0.60153585  0.93419834  0.62031078    -0.10800
C1702       C  0.58536180  0.91572331  0.64010276    -0.10800
C1703       C  0.58019343  0.88356584  0.63512990     0.11300
C1704       C  0.58743983  0.87170941  0.60830067    -0.10800
H1705       H  0.61559384  0.87708653  0.57169868     0.15300
H1706       H  0.60537791  0.95824693  0.62560477     0.15300
H1707       H  0.57766222  0.92656382  0.65959170     0.15300
H1708       H  0.58154250  0.84778187  0.60263253     0.15300
C1709       C  0.74226642  0.96868980  0.52768509    -0.10800
C1710       C  0.71033775  0.96833537  0.51973212     0.11300
C1711       C  0.70304863  0.97843820  0.49239765    -0.10800
C1712       C  0.72663591  0.98066168  0.47195984    -0.10800
C1713       C  0.75756532  0.97173328  0.47832621     0.11300
C1714       C  0.76584334  0.97004793  0.50699343    -0.10800
H1715       H  0.74898454  0.96574502  0.54949965     0.15300
H1716       H  0.67897243  0.98286874  0.48631391     0.15300
H1717       H  0.72015120  0.98727856  0.45079495     0.15300
H1718       H  0.79017490  0.96745123  0.51321777     0.15300
C1719       C  0.80233049  0.71032978  0.60948610    -0.13900
C1720       C  0.79375589  0.70198584  0.63577946    -0.29100
H1721       H  0.79216429  0.69808133  0.59142816     0.15100
H1722       H  0.80419780  0.71397829  0.65384760     0.15700
C1723       C  0.93208667  0.82517302  0.62534768    -0.10800
C1724       C  0.95764341  0.83085865  0.63542565    -0.12300
C1725       C  0.83765389  0.86834640  0.49395804    -0.10800
C1726       C  0.84354826  0.84931795  0.51176558    -0.12300
C1727       C  0.73446683  0.87245526  0.59853060    -0.10800
C1728       C  0.75564234  0.85527252  0.60462273    -0.12300
loop_ 
_geom_bond_atom_site_label_1 
_geom_bond_atom_site_label_2 
_geom_bond_distance 
_geom_bond_site_symmetry_2 
_ccdc_geom_bond_type 
O1            C4   1.268       .  A
O1           Cd6   2.486       .  S
C2           O11   1.262       .  A
C2            O7   1.270       .  A
C2          C430   1.437       .  S
O3            C9   1.269       .  A
O3           Cd6   2.496       .  S
C4           O12   1.266       .  A
C4          C423   1.480       .  S
C5           O10   1.267       .  A
C5            O8   1.266       .  A
C5          C427   1.445       .  S
Cd6          O13   2.419       .  S
Cd6          O12   2.464       .  S
Cd6          O11   2.418       .  S
Cd6           O7   2.500       .  S
Cd6          O10   2.480       .  S
Cd6           O8   2.479       .  S
C9           O13   1.260       .  A
C9          C432   1.433       .  S
C14          C16   1.540       .  S
C14          C18   1.522       .  S
C14          C17   1.534       .  S
C14         C414   1.531       .  S
C15          C19   1.555       .  S
C15          C21   1.562       .  S
C15          C20   1.539       .  S
C15         C404   1.540       .  S
C16          C24   1.381       .  A
C16          C19   1.412       .  A
C17          C28   1.378       .  A
C17          C20   1.388       .  A
C18          C21   1.402       .  A
C18         C464   1.368       .  A
C19          C22   1.391       .  A
C20          C26   1.382       .  A
C21         C461   1.395       .  A
C22          N23   1.349       .  A
C22          H35   1.081       .  S
N23          C24   1.347       .  A
N23         C402   1.403       .  S
C24          H25   1.083       .  S
C26          N27   1.353       .  A
C26          H36   1.083       .  S
N27          C28   1.352       .  A
N27         C431   1.401       .  S
C28          H34   1.082       .  S
C29         C453   1.394       .  A
C29          N30   1.359   1_565  A
C29          H31   1.077       .  S
N30          C32   1.348       .  A
N30         C399   1.405       .  S
C32         C450   1.371   1_545  A
C32          H33   1.083       .  S
C37          C39   1.531       .  S
C37          C41   1.543       .  S
C37          C40   1.543       .  S
C37         C417   1.535       .  S
C38          C42   1.538       .  S
C38          C44   1.549       .  S
C38          C43   1.542       .  S
C38         C388   1.531       .  S
C39          C47   1.381       .  A
C39          C42   1.383       .  A
C40          C51   1.382       .  A
C40          C43   1.390       .  A
C41          C44   1.431       .  A
C41         C487   1.374       .  A
C42          C45   1.383       .  A
C43          C49   1.382       .  A
C44         C484   1.391       .  A
C45          N46   1.353       .  A
C45          H58   1.083       .  S
N46          C47   1.355       .  A
N46         C429   1.404       .  S
C47          H48   1.082       .  S
C49          N50   1.347       .  A
C49          H59   1.082       .  S
N50          C51   1.350       .  A
N50         C397   1.397       .  S
C51          H57   1.082       .  S
C52         C476   1.393   1_545  A
C52          N53   1.355       .  A
C52          H54   1.083       .  S
N53          C55   1.344       .  A
N53         C385   1.405       .  S
C55         C473   1.376   1_545  A
C55          H56   1.083       .  S
O60          C63   1.267       .  A
O60         Cd65   2.511       .  S
C61          O70   1.259       .  A
C61          O66   1.269       .  A
C61         C401   1.435       .  S
O62          C68   1.264       .  A
O62         Cd65   2.470       .  S
C63          O71   1.265       .  A
C63         C379   1.484       .  S
C64          O69   1.264       .  A
C64          O67   1.266       .  A
C64         C383   1.437       .  S
Cd65         O72   2.422       .  S
Cd65         O71   2.477       .  S
Cd65         O70   2.413       .  S
Cd65         O66   2.518       .  S
Cd65         O69   2.452       .  S
Cd65         O67   2.466       .  S
C68          O72   1.263       .  A
C68         C398   1.426       .  S
O73          C76   1.266       .  A
O73         Cd78   2.502       .  S
C74          O83   1.259       .  A
C74          O79   1.268       .  A
C74         C375   1.436       .  S
O75          C81   1.265       .  A
O75         Cd78   2.473       .  S
C76          O84   1.264       .  A
C76         C380   1.485       .  S
C77          O82   1.262       .  A
C77          O80   1.266       .  A
C77         C386   1.440       .  S
Cd78         O85   2.417       .  S
Cd78         O84   2.488       .  S
Cd78         O83   2.422       .  S
Cd78         O79   2.515       .  S
Cd78         O82   2.457       .  S
Cd78         O80   2.493       .  S
C81          O85   1.263       .  A
C81         C377   1.426       .  S
C86          C88   1.528       .  S
C86          C90   1.529       .  S
C86          C89   1.544       .  S
C86         C366   1.532       .  S
C87          C91   1.556       .  S
C87          C93   1.551       .  S
C87          C92   1.540       .  S
C87         C354   1.538       .  S
C88          C96   1.375       .  A
C88          C91   1.392       .  A
C89         C100   1.381       .  A
C89          C92   1.404       .  A
C90         C104   1.376       .  A
C90          C93   1.415       .  A
C91          C94   1.395       .  A
C92          C98   1.382       .  A
C93         C101   1.393       .  A
C94          N95   1.354       .  A
C94         H107   1.078       .  S
N95          C96   1.348       .  A
N95         C376   1.403       .  S
C96          H97   1.083       .  S
C98          N99   1.349       .  A
C98         H108   1.083       .  S
N99         C100   1.349       .  A
N99         C364   1.399       .  S
C100        H106   1.081       .  S
C101        N102   1.354       .  A
C101        H103   1.082       .  S
N102        C104   1.344       .  A
N102       C1215   1.405       .  S
C104        H105   1.083       .  S
C109        C111   1.525       .  S
C109        C113   1.542       .  S
C109        C112   1.544       .  S
C109        C369   1.534       .  S
C110        C114   1.537       .  S
C110        C116   1.549       .  S
C110        C115   1.543       .  S
C110        C391   1.530       .  S
C111        C119   1.376       .  A
C111        C114   1.381       .  A
C112        C123   1.382       .  A
C112        C115   1.392       .  A
C113        C127   1.374       .  A
C113        C116   1.431       .  A
C114        C117   1.385       .  A
C115        C121   1.382       .  A
C116        C124   1.391       .  A
C117        N118   1.354       .  A
C117        H130   1.082       .  S
N118        C119   1.351       .  A
N118        C350   1.401       .  S
C119        H120   1.082       .  S
C121        N122   1.348       .  A
C121        H131   1.082       .  S
N122        C123   1.352       .  A
N122        C378   1.397       .  S
C123        H129   1.081       .  S
C124        N125   1.355       .  A
C124        H126   1.083       .  S
N125        C127   1.343       .  A
N125       C1248   1.403       .  S
C127        H128   1.083       .  S
O132        C135   1.267       .  A
O132       Cd137   2.491       .  S
C133        O142   1.266       .  A
C133        O138   1.268       .  A
C133        C343   1.482       .  S
O134        C140   1.266       .  A
O134       Cd137   2.498       .  S
C135        O143   1.261       .  A
C135        C349   1.434       .  S
C136        O141   1.267       .  A
C136        O139   1.260       .  A
C136        C363   1.430       .  S
Cd137       O144   2.483       .  S
Cd137       O143   2.431       .  S
Cd137       O142   2.461       .  S
Cd137       O138   2.489       .  S
Cd137       O141   2.487       .  S
Cd137       O139   2.433       .  S
C140        O144   1.266       .  A
C140        C347   1.447       .  S
O145        C148   1.270       .  A
O145       Cd150   2.541       .  S
C146        O155   1.263       .  A
C146        O151   1.268       .  A
C146        C333   1.486       .  S
O147        C153   1.262       .  A
O147       Cd150   2.452       .  S
C148        O156   1.259       .  A
C148        C340   1.441       .  S
C149        O154   1.264       .  A
C149        O152   1.263       .  A
C149        C341   1.428       .  S
Cd150       O157   2.499       .  S
Cd150       O156   2.420       .  S
Cd150       O155   2.476       .  S
Cd150       O151   2.515       .  S
Cd150       O154   2.457       .  S
Cd150       O152   2.439       .  S
C153        O157   1.267       .  A
C153        C337   1.440       .  S
C158        C160   1.527       .  S
C158        C162   1.545       .  S
C158        C161   1.544       .  S
C158        C324   1.534       .  S
C159        C163   1.536       .  S
C159        C165   1.546       .  S
C159        C164   1.547       .  S
C159        C314   1.532       .  S
C160        C168   1.380       .  A
C160        C163   1.378       .  A
C161        C172   1.383       .  A
C161        C164   1.399       .  A
C162        C176   1.377       .  A
C162        C165   1.431       .  A
C163        C166   1.384       .  A
C164        C170   1.382       .  A
C165        C173   1.390       .  A
C166        N167   1.354       .  A
C166        H179   1.082       .  S
N167        C168   1.353       .  A
N167        C311   1.404       .  S
C168        H169   1.082   1_556  S
C170        N171   1.347       .  A
C170        H180   1.082       .  S
N171        C172   1.350       .  A
N171        C342   1.398       .  S
C172        H178   1.082       .  S
C173        N174   1.353       .  A
C173        H175   1.083       .  S
N174        C176   1.345       .  A
N174        C742   1.404   1_545  S
C176        H177   1.083       .  S
C181        C183   1.532       .  S
C181        C185   1.529       .  S
C181        C184   1.543       .  S
C181        C327   1.532       .  S
C182        C186   1.558       .  S
C182        C188   1.553       .  S
C182        C187   1.537       .  S
C182        C357   1.538       .  S
C183        C191   1.378       .  A
C183        C186   1.394       .  A
C184        C195   1.378       .  A
C184        C187   1.399       .  A
C185        C199   1.377       .  A
C185        C188   1.416       .  A
C186        C189   1.396       .  A
C187        C193   1.381       .  A
C188        C196   1.393       .  A
C189        N190   1.353       .  A
C189        H202   1.079       .  S
N190        C191   1.350       .  A
N190        C339   1.408   1_554  S
C191        H192   1.083   1_554  S
C193        N194   1.350       .  A
C193        H203   1.083       .  S
N194        C195   1.349       .  A
N194        C308   1.397       .  S
C195        H201   1.081       .  S
C196        N197   1.355       .  A
C196        H198   1.082       .  S
N197        C199   1.344       .  A
N197        C780   1.406       .  S
C199        H200   1.083       .  S
O204        C207   1.268       .  A
O204       Cd209   2.497       .  S
C205        O214   1.260       .  A
C205        O210   1.268       .  A
C205        C312   1.438       .  S
O206        C212   1.266       .  A
O206       Cd209   2.472       .  S
C207        O215   1.265       .  A
C207        C344   1.484       .  S
C208        O213   1.264       .  A
C208        O211   1.267       .  A
C208        C352   1.442       .  S
Cd209       O216   2.422       .  S
Cd209       O215   2.477       .  S
Cd209       O214   2.429       .  S
Cd209       O210   2.516       .  S
Cd209       O213   2.471       .  S
Cd209       O211   2.485       .  S
C212        O216   1.261       .  A
C212        C307   1.427       .  S
O217        C220   1.267       .  A
O217       Cd222   2.484       .  S
C218        O227   1.261       .  A
C218        O223   1.269       .  A
C218        C304   1.439       .  S
O219        C225   1.267       .  A
O219       Cd222   2.489       .  S
C220        O228   1.266       .  A
C220        C424   1.480       .  S
C221        O226   1.265       .  A
C221        O224   1.266       .  A
C221        C400   1.440       .  S
Cd222       O229   2.416       .  S
Cd222       O228   2.466       .  S
Cd222       O227   2.429       .  S
Cd222       O223   2.513       .  S
Cd222       O226   2.467       .  S
Cd222       O224   2.481       .  S
C225        O229   1.260       .  A
C225        C306   1.430       .  S
C230        C232   1.530       .  S
C230        C234   1.555       .  S
C230        C233   1.530       .  S
C230        C294   1.535       .  S
C231        C235   1.530       .  S
C231        C237   1.559       .  S
C231        C236   1.539       .  S
C231        C317   1.531       .  S
C232        C240   1.379       .  A
C232        C235   1.376       .  A
C233        C244   1.374       .  A
C233        C236   1.382       .  A
C234        C237   1.445       .  A
C234       C1112   1.384   1_455  A
C235        C238   1.386       .  A
C236        C242   1.381       .  A
C237       C1109   1.390       .  A
C238        N239   1.354       .  A
C238        H251   1.083       .  S
N239        C240   1.353       .  A
N239        C303   1.405       .  S
C240        H241   1.083       .  S
C242        N243   1.351       .  A
C242        H252   1.082       .  S
N243        C244   1.352       .  A
N243        C291   1.395       .  S
C244        H250   1.083       .  S
C245       C1101   1.389       .  A
C245        N246   1.352       .  A
C245        H247   1.083       .  S
N246        C248   1.345       .  A
N246        C338   1.406       .  S
C248       C1098   1.383       .  A
C248        H249   1.081       .  S
C253        C255   1.550       .  S
C253        C257   1.545       .  S
C253        C256   1.538       .  S
C253        C297   1.543       .  S
C254        C258   1.544       .  S
C254        C260   1.546       .  S
C254        C259   1.537       .  S
C254        C407   1.532       .  S
C255        C263   1.381       .  A
C255        C258   1.410       .  A
C256        C267   1.376       .  A
C256        C259   1.386       .  A
C257        C260   1.406       .  A
C257       C1135   1.384   1_455  A
C258        C261   1.393       .  A
C259        C265   1.385       .  A
C260       C1132   1.382       .  A
C261        N262   1.352       .  A
C261        H274   1.082       .  S
N262        C263   1.347       .  A
N262        C290   1.406       .  S
C263        H264   1.082       .  S
C265        N266   1.351       .  A
C265        H275   1.082       .  S
N266        C267   1.350       .  A
N266        C305   1.399       .  S
C267        H273   1.083       .  S
C268       C1124   1.382       .  A
C268        N269   1.357       .  A
C268        H270   1.082       .  S
N269        C271   1.354       .  A
N269        C428   1.409       .  S
C271       C1121   1.386       .  A
C271        H272   1.075       .  S
O276        C279   1.268       .  A
O276       Cd281   2.523       .  S
C277        O286   1.259       .  A
C277        O282   1.270       .  A
C277        C289   1.440       .  S
O278        C284   1.264       .  A
O278       Cd281   2.467       .  S
C279        O287   1.263       .  A
C279        C334   1.486       .  S
C280        O285   1.261       .  A
C280        O283   1.267       .  A
C280        C309   1.436       .  S
Cd281       O288   2.411       .  S
Cd281       O287   2.481       .  S
Cd281       O286   2.425       .  S
Cd281       O282   2.534       .  S
Cd281       O285   2.436       .  S
Cd281       O283   2.491       .  S
C284        O288   1.263       .  A
C284        C292   1.425       .  S
C289        C290   1.210       .  T
C291        C292   1.200       .  T
C293        C294   1.405       .  A
C293        C298   1.381       .  A
C293        H299   1.084       .  S
C294        C295   1.409       .  A
C295        C296   1.416       .  A
C295       H1164   1.078   1_455  S
C296        C297   1.414       .  A
C296       H1165   1.072   1_455  S
C297        C298   1.406       .  A
C298        H302   1.083       .  S
H300       C1159   1.078       .  S
H301       C1160   1.067       .  S
C303        C304   1.208       .  T
C305        C306   1.203       .  T
C307        C308   1.201       .  T
C309        C310   1.207       .  T
C310        N606   1.403       .  S
C311        C312   1.208   1_556  T
C313        C314   1.415       .  A
C313        C318   1.423       .  A
C313        H319   1.081       .  S
C314        C315   1.400       .  A
C315        C316   1.373       .  A
C315        H320   1.082       .  S
C316        C317   1.404       .  A
C316        H321   1.082       .  S
C317        C318   1.413       .  A
C318        H322   1.082       .  S
C323        C324   1.408       .  A
C323        C328   1.398       .  A
C323        H329   1.079       .  S
C324        C325   1.405   1_556  A
C325        C326   1.400       .  A
C325        H330   1.083       .  S
C326        C327   1.409       .  A
C326        H331   1.078       .  S
C327        C328   1.405   1_554  A
C328        H332   1.083       .  S
C333        C334   1.346       .  D
C333        H335   1.087       .  S
C334        H336   1.086       .  S
C337        C338   1.209       .  T
C339        C340   1.210       .  T
C341        C342   1.202       .  T
C343        C344   1.347       .  D
C343        H345   1.086       .  S
C344        H346   1.087       .  S
C347        C348   1.213       .  T
C348        N629   1.409       .  S
C349        C350   1.205       .  T
C351        N966   1.406       .  S
C351        C352   1.210   1_655  T
C353        C354   1.406       .  A
C353        C358   1.399       .  A
C353        H359   1.082       .  S
C354        C355   1.408       .  A
C355        C356   1.401       .  A
C355        H360   1.074       .  S
C356        C357   1.407       .  A
C356        H361   1.082       .  S
C357        C358   1.407       .  A
C358        H362   1.076       .  S
C363        C364   1.203       .  T
C365        C366   1.407       .  A
C365        C370   1.401       .  A
C365        H371   1.078       .  S
C366        C367   1.406       .  A
C367        C368   1.397       .  A
C367        H372   1.083       .  S
C368        C369   1.406       .  A
C368        H373   1.078       .  S
C369        C370   1.407       .  A
C370        H374   1.083       .  S
C375        C376   1.207       .  T
C377        C378   1.201       .  T
C379        C380   1.347       .  D
C379        H381   1.087       .  S
C380        H382   1.087       .  S
C383        C384   1.207       .  T
C384        N989   1.404   1_455  S
C385        C386   1.209       .  T
C387        C388   1.414       .  A
C387        C392   1.423       .  A
C387        H393   1.082       .  S
C388        C389   1.402       .  A
C389        C390   1.372       .  A
C389        H394   1.083       .  S
C390        C391   1.400       .  A
C390        H395   1.083       .  S
C391        C392   1.415       .  A
C392        H396   1.081       .  S
C397        C398   1.201       .  T
C399        C400   1.209       .  T
C401        C402   1.206       .  T
C403        C404   1.412       .  A
C403        C408   1.392       .  A
C403        H409   1.082       .  S
C404        C405   1.407       .  A
C405        C406   1.406       .  A
C405        H410   1.069       .  S
C406        C407   1.409       .  A
C406        H411   1.081       .  S
C407        C408   1.401       .  A
C408        H412   1.082       .  S
C413        C414   1.409       .  A
C413        C418   1.402       .  A
C413        H419   1.082       .  S
C414        C415   1.404       .  A
C415        C416   1.396       .  A
C415        H420   1.081       .  S
C416        C417   1.409       .  A
C416        H421   1.080       .  S
C417        C418   1.405       .  A
C418        H422   1.082       .  S
C423        C424   1.347       .  D
C423        H425   1.087       .  S
C424        H426   1.087       .  S
C427        C428   1.212       .  T
C429        C430   1.208       .  T
C431        C432   1.205       .  T
O433        C436   1.268       .  A
O433       Cd438   2.483       .  S
C434        O443   1.261       .  A
C434        O439   1.269       .  A
C434        C862   1.439       .  S
O435        C441   1.268       .  A
O435       Cd438   2.476       .  S
C436        O444   1.267       .  A
C436        C855   1.482       .  S
C437        O442   1.265       .  A
C437        O440   1.266       .  A
C437        C859   1.440       .  S
Cd438       O445   2.416       .  S
Cd438       O444   2.470       .  S
Cd438       O443   2.426       .  S
Cd438       O439   2.512       .  S
Cd438       O442   2.464       .  S
Cd438       O440   2.473       .  S
C441        O445   1.261       .  A
C441        C864   1.429       .  S
C446        C448   1.537       .  S
C446        C450   1.524       .  S
C446        C449   1.535       .  S
C446        C846   1.529       .  S
C447        C451   1.555       .  S
C447        C453   1.561       .  S
C447        C452   1.537       .  S
C447        C836   1.535       .  S
C448        C456   1.381       .  A
C448        C451   1.407       .  A
C449        C460   1.377       .  A
C449        C452   1.389       .  A
C450        C453   1.403       .  A
C451        C454   1.392       .  A
C452        C458   1.381       .  A
C454        N455   1.349       .  A
C454        H467   1.081       .  S
N455        C456   1.347       .  A
N455        C834   1.404       .  S
C456        H457   1.083       .  S
C458        N459   1.351       .  A
C458        H468   1.083       .  S
N459        C460   1.353       .  A
N459        C863   1.399       .  S
C460        H466   1.082       .  S
C461        N462   1.358       .  A
C461        H463   1.076       .  S
N462        C464   1.346       .  A
N462        C831   1.402       .  S
C464        H465   1.083       .  S
C469        C471   1.530       .  S
C469        C473   1.544       .  S
C469        C472   1.544       .  S
C469        C849   1.533       .  S
C470        C474   1.538       .  S
C470        C476   1.549       .  S
C470        C475   1.542       .  S
C470        C820   1.527       .  S
C471        C479   1.381       .  A
C471        C474   1.380       .  A
C472        C483   1.382       .  A
C472        C475   1.390       .  A
C473        C476   1.432       .  A
C474        C477   1.386       .  A
C475        C481   1.381       .  A
C477        N478   1.354       .  A
C477        H490   1.082       .  S
N478        C479   1.353       .  A
N478        C861   1.405       .  S
C479        H480   1.082       .  S
C481        N482   1.348       .  A
C481        H491   1.082       .  S
N482        C483   1.352       .  A
N482        C829   1.397       .  S
C483        H489   1.082       .  S
C484        N485   1.355       .  A
C484        H486   1.083       .  S
N485        C487   1.344       .  A
N485        C817   1.403       .  S
C487        H488   1.083       .  S
O492        C495   1.268       .  A
O492       Cd497   2.521       .  S
C493        O502   1.259       .  A
C493        O498   1.270       .  A
C493        C833   1.436       .  S
O494        C500   1.266       .  A
O494       Cd497   2.476       .  S
C495        O503   1.265       .  A
C495        C811   1.491       .  S
C496        O501   1.263       .  A
C496        O499   1.267       .  A
C496        C815   1.439       .  S
Cd497       O504   2.414       .  S
Cd497       O503   2.490       .  S
Cd497       O502   2.413       .  S
Cd497       O498   2.514       .  S
Cd497       O501   2.452       .  S
Cd497       O499   2.488       .  S
C500        O504   1.262       .  A
C500        C830   1.427       .  S
O505        C508   1.268       .  A
O505       Cd510   2.531       .  S
C506        O515   1.260       .  A
C506        O511   1.270       .  A
C506        C807   1.440       .  S
O507        C513   1.266       .  A
O507       Cd510   2.484       .  S
C508        O516   1.265       .  A
C508        C812   1.491       .  S
C509        O514   1.264       .  A
C509        O512   1.266       .  A
C509        C818   1.438       .  S
Cd510       O517   2.412       .  S
Cd510       O516   2.491       .  S
Cd510       O515   2.429       .  S
Cd510       O511   2.524       .  S
Cd510       O514   2.464       .  S
Cd510       O512   2.478       .  S
C513        O517   1.262       .  A
C513        C809   1.429       .  S
C518        C520   1.537       .  S
C518        C522   1.517       .  S
C518        C521   1.531       .  S
C518        C798   1.524       .  S
C519        C523   1.558       .  S
C519        C525   1.563       .  S
C519        C524   1.541       .  S
C519        C786   1.536       .  S
C520        C528   1.380       .  A
C520        C523   1.406       .  A
C521        C532   1.376       .  A
C521        C524   1.390       .  A
C522        C536   1.367       .  A
C522        C525   1.400       .  A
C523        C526   1.393       .  A
C524        C530   1.382       .  A
C525        C533   1.395       .  A
C526        N527   1.352       .  A
C526        H539   1.081       .  S
N527        C528   1.348       .  A
N527        C808   1.406       .  S
C528        H529   1.083       .  S
C530        N531   1.354       .  A
C530        H540   1.083       .  S
N531        C532   1.352       .  A
N531        C796   1.399       .  S
C532        H538   1.082       .  S
C533        N534   1.358       .  A
C533        H535   1.076       .  S
N534        C536   1.345       .  A
N534       C1647   1.401       .  S
C536        H537   1.083       .  S
C541        C543   1.532       .  S
C541        C545   1.543       .  S
C541        C544   1.544       .  S
C541        C801   1.528       .  S
C542        C546   1.538       .  S
C542        C548   1.551       .  S
C542        C547   1.541       .  S
C542        C823   1.526       .  S
C543        C551   1.383       .  A
C543        C546   1.379       .  A
C544        C555   1.382       .  A
C544        C547   1.388       .  A
C545        C559   1.377       .  A
C545        C548   1.432       .  A
C546        C549   1.387       .  A
C547        C553   1.382       .  A
C548        C556   1.393       .  A
C549        N550   1.354       .  A
C549        H562   1.082       .  S
N550        C551   1.354       .  A
N550        C782   1.408       .  S
C551        H552   1.082       .  S
C553        N554   1.348       .  A
C553        H563   1.082       .  S
N554        C555   1.352       .  A
N554        C810   1.398       .  S
C555        H561   1.082       .  S
C556        N557   1.355       .  A
C556        H558   1.083       .  S
N557        C559   1.344       .  A
N557       C1680   1.407       .  S
C559        H560   1.083       .  S
O564        C567   1.272       .  A
O564       Cd569   2.531       .  S
C565        O574   1.264       .  A
C565        O570   1.271       .  A
C565        C775   1.484       .  S
O566        C572   1.265       .  A
O566       Cd569   2.456       .  S
C567        O575   1.261       .  A
C567        C781   1.443       .  S
C568        O573   1.268       .  A
C568        O571   1.262       .  A
C568        C795   1.429       .  S
Cd569       O576   2.486       .  S
Cd569       O575   2.422       .  S
Cd569       O574   2.459       .  S
Cd569       O570   2.512       .  S
Cd569       O573   2.473       .  S
Cd569       O571   2.419       .  S
C572        O576   1.268       .  A
C572        C779   1.442       .  S
O577        C580   1.272       .  A
O577       Cd582   2.533       .  S
C578        O587   1.264       .  A
C578        O583   1.268       .  A
C578        C765   1.491       .  S
O579        C585   1.263       .  A
O579       Cd582   2.466       .  S
C580        O588   1.259       .  A
C580        C772   1.442       .  S
C581        O586   1.266       .  A
C581        O584   1.262       .  A
C581        C773   1.429       .  S
Cd582       O589   2.515       .  S
Cd582       O588   2.415       .  S
Cd582       O587   2.489       .  S
Cd582       O583   2.537       .  S
Cd582       O586   2.482       .  S
Cd582       O584   2.415       .  S
C585        O589   1.269       .  A
C585        C769   1.447       .  S
C590        C592   1.533       .  S
C590        C594   1.543       .  S
C590        C593   1.542       .  S
C590        C756   1.529       .  S
C591        C595   1.536       .  S
C591        C597   1.546       .  S
C591        C596   1.542       .  S
C591        C746   1.523       .  S
C592        C600   1.383       .  A
C592        C595   1.381       .  A
C593        C604   1.381       .  A
C593        C596   1.387       .  A
C594        C608   1.376       .  A
C594        C597   1.431       .  A
C595        C598   1.383       .  A
C596        C602   1.383       .  A
C597        C605   1.390       .  A
C598        N599   1.352       .  A
C598        H611   1.083       .  S
N599        C600   1.355       .  A
N599        C743   1.405       .  S
C600        H601   1.082   1_556  S
C602        N603   1.349       .  A
C602        H612   1.082       .  S
N603        C604   1.350       .  A
N603        C774   1.398       .  S
C604        H610   1.082       .  S
C605        N606   1.352       .  A
C605        H607   1.083       .  S
N606        C608   1.344       .  A
C608        H609   1.083       .  S
C613        C615   1.550       .  S
C613        C617   1.521       .  S
C613        C616   1.536       .  S
C613        C759   1.523       .  S
C614        C618   1.553       .  S
C614        C620   1.542       .  S
C614        C619   1.539       .  S
C614        C789   1.526       .  S
C615        C623   1.386       .  A
C615        C618   1.421       .  A
C616        C627   1.378       .  A
C616        C619   1.388       .  A
C617        C631   1.374       .  A
C617        C620   1.387       .  A
C618        C621   1.395       .  A
C619        C625   1.380       .  A
C620        C628   1.387       .  A
C621        N622   1.349       .  A
C621        H634   1.082       .  S
N622        C623   1.347       .  A
N622        C771   1.408   1_554  S
C623        H624   1.083   1_554  S
C625        N626   1.348       .  A
C625        H635   1.082       .  S
N626        C627   1.351       .  A
N626        C740   1.395       .  S
C627        H633   1.082       .  S
C628        N629   1.362       .  A
C628        H630   1.082       .  S
N629        C631   1.353       .  A
C631        H632   1.083       .  S
O636        C639   1.271       .  A
O636       Cd641   2.502       .  S
C637        O646   1.260       .  A
C637        O642   1.271       .  A
C637        C744   1.437       .  S
O638        C644   1.267       .  A
O638       Cd641   2.460       .  S
C639        O647   1.265       .  A
C639        C776   1.482       .  S
C640        O645   1.265       .  A
C640        O643   1.268       .  A
C640        C784   1.436       .  S
Cd641       O648   2.403       .  S
Cd641       O647   2.449       .  S
Cd641       O646   2.410       .  S
Cd641       O642   2.512       .  S
Cd641       O645   2.451       .  S
Cd641       O643   2.467       .  S
C644        O648   1.260       .  A
C644        C739   1.423       .  S
O649        C652   1.269       .  A
O649       Cd654   2.491       .  S
C650        O659   1.262       .  A
C650        O655   1.270       .  A
C650        C736   1.438       .  S
O651        C657   1.267       .  A
O651       Cd654   2.468       .  S
C652        O660   1.266       .  A
C652        C856   1.482       .  S
C653        O658   1.265       .  A
C653        O656   1.267       .  A
C653        C832   1.436       .  S
Cd654       O661   2.413       .  S
Cd654       O660   2.470       .  S
Cd654       O659   2.422       .  S
Cd654       O655   2.507       .  S
Cd654       O658   2.446       .  S
Cd654       O656   2.474       .  S
C657        O661   1.262       .  A
C657        C738   1.427       .  S
C662        C664   1.526       .  S
C662        C666   1.552       .  S
C662        C665   1.530       .  S
C662        C726   1.523       .  S
C663        C667   1.530       .  S
C663        C669   1.555       .  S
C663        C668   1.543       .  S
C663        C749   1.521       .  S
C664        C672   1.377       .  A
C664        C667   1.373       .  A
C665        C676   1.376       .  A
C665        C668   1.379       .  A
C666       C1544   1.383   1_455  A
C666        C669   1.442       .  A
C667        C670   1.387       .  A
C668        C674   1.385       .  A
C669       C1541   1.387       .  A
C670        N671   1.356       .  A
C670        H683   1.083       .  S
N671        C672   1.352       .  A
N671        C735   1.404       .  S
C672        H673   1.083       .  S
C674        N675   1.352       .  A
C674        H684   1.082       .  S
N675        C676   1.352       .  A
N675        C723   1.398       .  S
C676        H682   1.083       .  S
C677       C1533   1.391       .  A
C677        N678   1.353       .  A
C677        H679   1.083       .  S
N678        C680   1.347       .  A
N678        C770   1.410       .  S
C680       C1530   1.384       .  A
C680        H681   1.081       .  S
C685        C687   1.553       .  S
C685        C689   1.543       .  S
C685        C688   1.534       .  S
C685        C729   1.536       .  S
C686        C690   1.542       .  S
C686        C692   1.542       .  S
C686        C691   1.537       .  S
C686        C839   1.525       .  S
C687        C695   1.380       .  A
C687        C690   1.407       .  A
C688        C699   1.375       .  A
C688        C691   1.383       .  A
C689       C1567   1.381   1_455  A
C689        C692   1.404       .  A
C690        C693   1.392       .  A
C691        C697   1.385       .  A
C692       C1564   1.380       .  A
C693        N694   1.352       .  A
C693        H706   1.082       .  S
N694        C695   1.348       .  A
N694        C722   1.406       .  S
C695        H696   1.082       .  S
C697        N698   1.351       .  A
C697        H707   1.082       .  S
N698        C699   1.349       .  A
N698        C737   1.397       .  S
C699        H705   1.083       .  S
C700       C1556   1.381       .  A
C700        N701   1.355       .  A
C700        H702   1.082       .  S
N701        C703   1.352       .  A
N701        C860   1.405       .  S
C703       C1553   1.382       .  A
C703        H704   1.077       .  S
O708        C711   1.267       .  A
O708       Cd713   2.523       .  S
C709        O718   1.259       .  A
C709        O714   1.268       .  A
C709        C721   1.440       .  S
O710        C716   1.264       .  A
O710       Cd713   2.480       .  S
C711        O719   1.265       .  A
C711        C766   1.492       .  S
C712        O717   1.262       .  A
C712        O715   1.266       .  A
C712        C741   1.438       .  S
Cd713       O720   2.433       .  S
Cd713       O719   2.497       .  S
Cd713       O718   2.426       .  S
Cd713       O714   2.536       .  S
Cd713       O717   2.452       .  S
Cd713       O715   2.487       .  S
C716        O720   1.264       .  A
C716        C724   1.430       .  S
C721        C722   1.209       .  T
C723        C724   1.203       .  T
C725        C726   1.403       .  A
C725        C730   1.377       .  A
C725        H731   1.084       .  S
C726        C727   1.405       .  A
C727        C728   1.410       .  A
C727       H1596   1.079   1_455  S
C728        C729   1.413       .  A
C728       H1597   1.068   1_455  S
C729        C730   1.405       .  A
C730        H734   1.083       .  S
H732       C1591   1.078       .  S
H733       C1592   1.071       .  S
C735        C736   1.208       .  T
C737        C738   1.201       .  T
C739        C740   1.200       .  T
C741        C742   1.207       .  T
C743        C744   1.208   1_556  T
C745        C746   1.413       .  A
C745        C750   1.420       .  A
C745        H751   1.081       .  S
C746        C747   1.399       .  A
C747        C748   1.368       .  A
C747        H752   1.083       .  S
C748        C749   1.401       .  A
C748        H753   1.082       .  S
C749        C750   1.412       .  A
C750        H754   1.082       .  S
C755        C756   1.408       .  A
C755        C760   1.395       .  A
C755        H761   1.081       .  S
C756        C757   1.404   1_556  A
C757        C758   1.399       .  A
C757        H762   1.082       .  S
C758        C759   1.409       .  A
C758        H763   1.082       .  S
C759        C760   1.402   1_554  A
C760        H764   1.082       .  S
C765        C766   1.349       .  D
C765        H767   1.086       .  S
C766        H768   1.086       .  S
C769        C770   1.213       .  T
C771        C772   1.211       .  T
C773        C774   1.202       .  T
C775        C776   1.345       .  D
C775        H777   1.087       .  S
C776        H778   1.086       .  S
C779        C780   1.210   1_565  T
C781        C782   1.211       .  T
C783       N1398   1.402       .  S
C783        C784   1.206   1_655  T
C785        C786   1.409       .  A
C785        C790   1.403       .  A
C785        H791   1.067       .  S
C786        C787   1.410       .  A
C787        C788   1.390       .  A
C787        H792   1.080       .  S
C788        C789   1.401       .  A
C788        H793   1.083       .  S
C789        C790   1.405       .  A
C790        H794   1.081       .  S
C795        C796   1.203       .  T
C797        C798   1.407       .  A
C797        C802   1.399       .  A
C797        H803   1.081       .  S
C798        C799   1.404       .  A
C799        C800   1.393       .  A
C799        H804   1.082       .  S
C800        C801   1.405       .  A
C800        H805   1.080       .  S
C801        C802   1.406       .  A
C802        H806   1.082       .  S
C807        C808   1.210       .  T
C809        C810   1.202       .  T
C811        C812   1.350       .  D
C811        H813   1.086       .  S
C812        H814   1.086       .  S
C815        C816   1.208       .  T
C816       N1421   1.404   1_455  S
C817        C818   1.208       .  T
C819        C820   1.414       .  A
C819        C824   1.422       .  A
C819        H825   1.082       .  S
C820        C821   1.401       .  A
C821        C822   1.370       .  A
C821        H826   1.083       .  S
C822        C823   1.401       .  A
C822        H827   1.083       .  S
C823        C824   1.413       .  A
C824        H828   1.082       .  S
C829        C830   1.202       .  T
C831        C832   1.206       .  T
C833        C834   1.207       .  T
C835        C836   1.410       .  A
C835        C840   1.386       .  A
C835        H841   1.082       .  S
C836        C837   1.407       .  A
C837        C838   1.405       .  A
C837        H842   1.069       .  S
C838        C839   1.408       .  A
C838        H843   1.082       .  S
C839        C840   1.398       .  A
C840        H844   1.082       .  S
C845        C846   1.407       .  A
C845        C850   1.401       .  A
C845        H851   1.081       .  S
C846        C847   1.406       .  A
C847        C848   1.396       .  A
C847        H852   1.082       .  S
C848        C849   1.406       .  A
C848        H853   1.081       .  S
C849        C850   1.407       .  A
C850        H854   1.082       .  S
C855        C856   1.347       .  D
C855        H857   1.087       .  S
C856        H858   1.087       .  S
C859        C860   1.208       .  T
C861        C862   1.208       .  T
C863        C864   1.203       .  T
O865        C868   1.268       .  A
O865       Cd870   2.477       .  S
C866        O875   1.261       .  A
C866        O871   1.269       .  A
C866       C1294   1.441       .  S
O867        C873   1.268       .  A
O867       Cd870   2.488       .  S
C868        O876   1.267       .  A
C868       C1287   1.479       .  S
C869        O874   1.265       .  A
C869        O872   1.267       .  A
C869       C1291   1.444       .  S
Cd870       O877   2.430       .  S
Cd870       O876   2.467       .  S
Cd870       O875   2.428       .  S
Cd870       O871   2.515       .  S
Cd870       O874   2.467       .  S
Cd870       O872   2.490       .  S
C873        O877   1.261       .  A
C873       C1296   1.432       .  S
C878        C880   1.535       .  S
C878        C882   1.518       .  S
C878        C881   1.531       .  S
C878       C1278   1.528       .  S
C879        C883   1.559       .  S
C879        C885   1.565       .  S
C879        C884   1.541       .  S
C879       C1268   1.544       .  S
C880        C888   1.379       .  A
C880        C883   1.410       .  A
C881        C892   1.375       .  A
C881        C884   1.390       .  A
C882       C1328   1.368       .  A
C882        C885   1.403       .  A
C883        C886   1.393       .  A
C884        C890   1.383       .  A
C885       C1325   1.395       .  A
C886        N887   1.350       .  A
C886        H899   1.081       .  S
N887        C888   1.345       .  A
N887       C1266   1.403       .  S
C888        H889   1.083       .  S
C890        N891   1.354       .  A
C890        H900   1.083       .  S
N891        C892   1.352       .  A
N891       C1295   1.400       .  S
C892        H898   1.082       .  S
C893       C1317   1.393       .  A
C893        N894   1.357   1_565  A
C893        H895   1.076       .  S
N894        C896   1.347       .  A
N894       C1263   1.403       .  S
C896       C1314   1.370   1_545  A
C896        H897   1.083       .  S
C901        C903   1.527       .  S
C901        C905   1.543       .  S
C901        C904   1.543       .  S
C901       C1281   1.530       .  S
C902        C906   1.543       .  S
C902        C908   1.553       .  S
C902        C907   1.542       .  S
C902       C1252   1.530       .  S
C903        C911   1.380       .  A
C903        C906   1.380       .  A
C904        C915   1.382       .  A
C904        C907   1.391       .  A
C905       C1351   1.377       .  A
C905        C908   1.430       .  A
C906        C909   1.388       .  A
C907        C913   1.382       .  A
C908       C1348   1.395       .  A
C909        N910   1.355       .  A
C909        H922   1.082       .  S
N910        C911   1.353       .  A
N910       C1293   1.406       .  S
C911        H912   1.082       .  S
C913        N914   1.347       .  A
C913        H923   1.082       .  S
N914        C915   1.351       .  A
N914       C1261   1.397       .  S
C915        H921   1.082       .  S
C916       C1340   1.392   1_545  A
C916        N917   1.355       .  A
C916        H918   1.083       .  S
N917        C919   1.344       .  A
N917       C1249   1.405       .  S
C919       C1337   1.375   1_545  A
C919        H920   1.083       .  S
O924        C927   1.266       .  A
O924       Cd929   2.509       .  S
C925        O934   1.259       .  A
C925        O930   1.269       .  A
C925       C1265   1.436       .  S
O926        C932   1.264       .  A
O926       Cd929   2.478       .  S
C927        O935   1.265       .  A
C927       C1243   1.485       .  S
C928        O933   1.263       .  A
C928        O931   1.266       .  A
C928       C1247   1.438       .  S
Cd929       O936   2.417       .  S
Cd929       O935   2.485       .  S
Cd929       O934   2.417       .  S
Cd929       O930   2.515       .  S
Cd929       O933   2.456       .  S
Cd929       O931   2.479       .  S
C932        O936   1.262       .  A
C932       C1262   1.426       .  S
O937        C940   1.266       .  A
O937       Cd942   2.494       .  S
C938        O947   1.259       .  A
C938        O943   1.267       .  A
C938       C1239   1.437       .  S
O939        C945   1.264       .  A
O939       Cd942   2.470       .  S
C940        O948   1.266       .  A
C940       C1244   1.486       .  S
C941        O946   1.262       .  A
C941        O944   1.266       .  A
C941       C1250   1.441       .  S
Cd942       O949   2.430       .  S
Cd942       O948   2.496       .  S
Cd942       O947   2.426       .  S
Cd942       O943   2.520       .  S
Cd942       O946   2.467       .  S
Cd942       O944   2.497       .  S
C945        O949   1.262       .  A
C945       C1241   1.427       .  S
C950        C952   1.528       .  S
C950        C954   1.527       .  S
C950        C953   1.546       .  S
C950       C1230   1.528       .  S
C951        C955   1.555       .  S
C951        C957   1.550       .  S
C951        C956   1.543       .  S
C951       C1218   1.534       .  S
C952        C960   1.376       .  A
C952        C955   1.390       .  A
C953        C964   1.381       .  A
C953        C956   1.408       .  A
C954        C968   1.377       .  A
C954        C957   1.411       .  A
C955        C958   1.395       .  A
C956        C962   1.385       .  A
C957        C965   1.394       .  A
C958        N959   1.354       .  A
C958        H971   1.079       .  S
N959        C960   1.349       .  A
N959       C1240   1.404       .  S
C960        H961   1.083       .  S
C962        N963   1.349       .  A
C962        H972   1.083       .  S
N963        C964   1.347       .  A
N963       C1228   1.400       .  S
C964        H970   1.081       .  S
C965        N966   1.355       .  A
C965        H967   1.082       .  S
N966        C968   1.344       .  A
C968        H969   1.083       .  S
C973        C975   1.527       .  S
C973        C977   1.543       .  S
C973        C976   1.545       .  S
C973       C1233   1.531       .  S
C974        C978   1.538       .  S
C974        C980   1.550       .  S
C974        C979   1.541       .  S
C974       C1255   1.530       .  S
C975        C983   1.379       .  A
C975        C978   1.379       .  A
C976        C987   1.383       .  A
C976        C979   1.392       .  A
C977        C991   1.375       .  A
C977        C980   1.432       .  A
C978        C981   1.386       .  A
C979        C985   1.380       .  A
C980        C988   1.392       .  A
C981        N982   1.354       .  A
C981        H994   1.082       .  S
N982        C983   1.352       .  A
N982       C1214   1.403       .  S
C983        H984   1.082       .  S
C985        N986   1.347       .  A
C985        H995   1.082       .  S
N986        C987   1.352       .  A
N986       C1242   1.397       .  S
C987        H993   1.081       .  S
C988        N989   1.355       .  A
C988        H990   1.083       .  S
N989        C991   1.343       .  A
C991        H992   1.084       .  S
O996        C999   1.269       .  A
O996      Cd1001   2.503       .  S
C997       O1006   1.265       .  A
C997       O1002   1.268       .  A
C997       C1207   1.479       .  S
O998       C1004   1.266       .  A
O998      Cd1001   2.485       .  S
C999       O1007   1.262       .  A
C999       C1213   1.437       .  S
C1000      O1005   1.268       .  A
C1000      O1003   1.261       .  A
C1000      C1227   1.433       .  S
Cd1001     O1008   2.474       .  S
Cd1001     O1007   2.425       .  S
Cd1001     O1006   2.468       .  S
Cd1001     O1002   2.484       .  S
Cd1001     O1005   2.483       .  S
Cd1001     O1003   2.438       .  S
C1004      O1008   1.266       .  A
C1004      C1211   1.445       .  S
O1009      C1012   1.269       .  A
O1009     Cd1014   2.517       .  S
C1010      O1019   1.265       .  A
C1010      O1015   1.268       .  A
C1010      C1197   1.487       .  S
O1011      C1017   1.263       .  A
O1011     Cd1014   2.464       .  S
C1012      O1020   1.260       .  A
C1012      C1204   1.438       .  S
C1013      O1018   1.266       .  A
C1013      O1016   1.261       .  A
C1013      C1205   1.429       .  S
Cd1014     O1021   2.510       .  S
Cd1014     O1020   2.425       .  S
Cd1014     O1019   2.480       .  S
Cd1014     O1015   2.518       .  S
Cd1014     O1018   2.487       .  S
Cd1014     O1016   2.415       .  S
C1017      O1021   1.267       .  A
C1017      C1201   1.445       .  S
C1022      C1024   1.530       .  S
C1022      C1026   1.545       .  S
C1022      C1025   1.545       .  S
C1022      C1188   1.535       .  S
C1023      C1027   1.535       .  S
C1023      C1029   1.549       .  S
C1023      C1028   1.541       .  S
C1023      C1178   1.532       .  S
C1024      C1032   1.381       .  A
C1024      C1027   1.381       .  A
C1025      C1036   1.383       .  A
C1025      C1028   1.392       .  A
C1026      C1040   1.376       .  A
C1026      C1029   1.433       .  A
C1027      C1030   1.383       .  A
C1028      C1034   1.381       .  A
C1029      C1037   1.391       .  A
C1030      N1031   1.351       .  A
C1030      H1043   1.082       .  S
N1031      C1032   1.353       .  A
N1031      C1175   1.402   1_556  S
C1032      H1033   1.082   1_556  S
C1034      N1035   1.348       .  A
C1034      H1044   1.082       .  S
N1035      C1036   1.352       .  A
N1035      C1206   1.399       .  S
C1036      H1042   1.081       .  S
C1037      N1038   1.353       .  A
C1037      H1039   1.082       .  S
N1038      C1040   1.344       .  A
N1038      C1606   1.404   1_545  S
C1040      H1041   1.083       .  S
C1045      C1047   1.528       .  S
C1045      C1049   1.529       .  S
C1045      C1048   1.548       .  S
C1045      C1191   1.530       .  S
C1046      C1050   1.554       .  S
C1046      C1052   1.549       .  S
C1046      C1051   1.540       .  S
C1046      C1221   1.535       .  S
C1047      C1055   1.378       .  A
C1047      C1050   1.390       .  A
C1048      C1059   1.382       .  A
C1048      C1051   1.408       .  A
C1049      C1063   1.376       .  A
C1049      C1052   1.413       .  A
C1050      C1053   1.394       .  A
C1051      C1057   1.383       .  A
C1052      C1060   1.393       .  A
C1053      N1054   1.353       .  A
C1053      H1066   1.080       .  S
N1054      C1055   1.350       .  A
N1054      C1203   1.405   1_554  S
C1055      H1056   1.083   1_554  S
C1057      N1058   1.349       .  A
C1057      H1067   1.083       .  S
N1058      C1059   1.349       .  A
N1058      C1172   1.400       .  S
C1059      H1065   1.082       .  S
C1060      N1061   1.354       .  A
C1060      H1062   1.082       .  S
N1061      C1063   1.344       .  A
N1061      C1644   1.405   1_545  S
C1063      H1064   1.083       .  S
O1068      C1071   1.268       .  A
O1068     Cd1073   2.491       .  S
C1069      O1078   1.260       .  A
C1069      O1074   1.269       .  A
C1069      C1176   1.434       .  S
O1070      C1076   1.266       .  A
O1070     Cd1073   2.481       .  S
C1071      O1079   1.264       .  A
C1071      C1208   1.478       .  S
C1072      O1077   1.264       .  A
C1072      O1075   1.267       .  A
C1072      C1216   1.440       .  S
Cd1073     O1080   2.433       .  S
Cd1073     O1079   2.451       .  S
Cd1073     O1078   2.410       .  S
Cd1073     O1074   2.505       .  S
Cd1073     O1077   2.454       .  S
Cd1073     O1075   2.487       .  S
C1076      O1080   1.261       .  A
C1076      C1171   1.432       .  S
O1081      C1084   1.267       .  A
O1081     Cd1086   2.470       .  S
C1082      O1091   1.261       .  A
C1082      O1087   1.269       .  A
C1082      C1168   1.435       .  S
O1083      C1089   1.267       .  A
O1083     Cd1086   2.468       .  S
C1084      O1092   1.266       .  A
C1084      C1288   1.478       .  S
C1085      O1090   1.265       .  A
C1085      O1088   1.266       .  A
C1085      C1264   1.436       .  S
Cd1086     O1093   2.423       .  S
Cd1086     O1092   2.458       .  S
Cd1086     O1091   2.413       .  S
Cd1086     O1087   2.506       .  S
Cd1086     O1090   2.460       .  S
Cd1086     O1088   2.464       .  S
C1089      O1093   1.262       .  A
C1089      C1170   1.427       .  S
C1094      C1096   1.526       .  S
C1094      C1098   1.553       .  S
C1094      C1097   1.530       .  S
C1094      C1158   1.532       .  S
C1095      C1099   1.529       .  S
C1095      C1101   1.557       .  S
C1095      C1100   1.544       .  S
C1095      C1181   1.531       .  S
C1096      C1104   1.376       .  A
C1096      C1099   1.376       .  A
C1097      C1108   1.374       .  A
C1097      C1100   1.383       .  A
C1098      C1101   1.443       .  A
C1099      C1102   1.385       .  A
C1100      C1106   1.384       .  A
C1102      N1103   1.354       .  A
C1102      H1115   1.083       .  S
N1103      C1104   1.352       .  A
N1103      C1167   1.402       .  S
C1104      H1105   1.083       .  S
C1106      N1107   1.352       .  A
C1106      H1116   1.082       .  S
N1107      C1108   1.352       .  A
N1107      C1155   1.397       .  S
C1108      H1114   1.083       .  S
C1109      N1110   1.353   1_455  A
C1109      H1111   1.083       .  S
N1110      C1112   1.347       .  A
N1110      C1202   1.409       .  S
C1112      H1113   1.081       .  S
C1117      C1119   1.553       .  S
C1117      C1121   1.548       .  S
C1117      C1120   1.536       .  S
C1117      C1161   1.545       .  S
C1118      C1122   1.545       .  S
C1118      C1124   1.549       .  S
C1118      C1123   1.534       .  S
C1118      C1271   1.536       .  S
C1119      C1127   1.381       .  A
C1119      C1122   1.411       .  A
C1120      C1131   1.375       .  A
C1120      C1123   1.384       .  A
C1121      C1124   1.407       .  A
C1122      C1125   1.394       .  A
C1123      C1129   1.384       .  A
C1125      N1126   1.352       .  A
C1125      H1138   1.082       .  S
N1126      C1127   1.347       .  A
N1126      C1154   1.406       .  S
C1127      H1128   1.082       .  S
C1129      N1130   1.351       .  A
C1129      H1139   1.082       .  S
N1130      C1131   1.350       .  A
N1130      C1169   1.397       .  S
C1131      H1137   1.083       .  S
C1132      N1133   1.356   1_455  A
C1132      H1134   1.082       .  S
N1133      C1135   1.354       .  A
N1133      C1292   1.408       .  S
C1135      H1136   1.078       .  S
O1140      C1143   1.266       .  A
O1140     Cd1145   2.511       .  S
C1141      O1150   1.259       .  A
C1141      O1146   1.269       .  A
C1141      C1153   1.440       .  S
O1142      C1148   1.264       .  A
O1142     Cd1145   2.478       .  S
C1143      O1151   1.265       .  A
C1143      C1198   1.488       .  S
C1144      O1149   1.262       .  A
C1144      O1147   1.266       .  A
C1144      C1173   1.436       .  S
Cd1145     O1152   2.429       .  S
Cd1145     O1151   2.499       .  S
Cd1145     O1150   2.422       .  S
Cd1145     O1146   2.538       .  S
Cd1145     O1149   2.450       .  S
Cd1145     O1147   2.485       .  S
C1148      O1152   1.263       .  A
C1148      C1156   1.429       .  S
C1153      C1154   1.209       .  T
C1155      C1156   1.202       .  T
C1157      C1158   1.404       .  A
C1157      C1162   1.383       .  A
C1157      H1163   1.084       .  S
C1158      C1159   1.408       .  A
C1159      C1160   1.413       .  A
C1160      C1161   1.413       .  A
C1161      C1162   1.408       .  A
C1162      H1166   1.083       .  S
C1167      C1168   1.206       .  T
C1169      C1170   1.201       .  T
C1171      C1172   1.204       .  T
C1173      C1174   1.206       .  T
C1174      N1470   1.402       .  S
C1175      C1176   1.206       .  T
C1177      C1178   1.414       .  A
C1177      C1182   1.423       .  A
C1177      H1183   1.081       .  S
C1178      C1179   1.401       .  A
C1179      C1180   1.373       .  A
C1179      H1184   1.083       .  S
C1180      C1181   1.403       .  A
C1180      H1185   1.080       .  S
C1181      C1182   1.415       .  A
C1182      H1186   1.082       .  S
C1187      C1188   1.407       .  A
C1187      C1192   1.398       .  A
C1187      H1193   1.079       .  S
C1188      C1189   1.406   1_556  A
C1189      C1190   1.400       .  A
C1189      H1194   1.083       .  S
C1190      C1191   1.408       .  A
C1190      H1195   1.079       .  S
C1191      C1192   1.406   1_554  A
C1192      H1196   1.083       .  S
C1197      C1198   1.349       .  D
C1197      H1199   1.086       .  S
C1198      H1200   1.086       .  S
C1201      C1202   1.212       .  T
C1203      C1204   1.209       .  T
C1205      C1206   1.203       .  T
C1207      C1208   1.344       .  D
C1207      H1209   1.087       .  S
C1208      H1210   1.087       .  S
C1211      C1212   1.212       .  T
C1212      N1493   1.408       .  S
C1213      C1214   1.207       .  T
C1215      C1216   1.208       .  T
C1217      C1218   1.405       .  A
C1217      C1222   1.398       .  A
C1217      H1223   1.083       .  S
C1218      C1219   1.408       .  A
C1219      C1220   1.400       .  A
C1219      H1224   1.075       .  S
C1220      C1221   1.406       .  A
C1220      H1225   1.083       .  S
C1221      C1222   1.407       .  A
C1222      H1226   1.077       .  S
C1227      C1228   1.205       .  T
C1229      C1230   1.407       .  A
C1229      C1234   1.399       .  A
C1229      H1235   1.078       .  S
C1230      C1231   1.405       .  A
C1231      C1232   1.396       .  A
C1231      H1236   1.083       .  S
C1232      C1233   1.406       .  A
C1232      H1237   1.078       .  S
C1233      C1234   1.406       .  A
C1234      H1238   1.083       .  S
C1239      C1240   1.208       .  T
C1241      C1242   1.201       .  T
C1243      C1244   1.349       .  D
C1243      H1245   1.086       .  S
C1244      H1246   1.086       .  S
C1247      C1248   1.207       .  T
C1249      C1250   1.209       .  T
C1251      C1252   1.413       .  A
C1251      C1256   1.423       .  A
C1251      H1257   1.082       .  S
C1252      C1253   1.402       .  A
C1253      C1254   1.372       .  A
C1253      H1258   1.082       .  S
C1254      C1255   1.401       .  A
C1254      H1259   1.083       .  S
C1255      C1256   1.413       .  A
C1256      H1260   1.081       .  S
C1261      C1262   1.201       .  T
C1263      C1264   1.206       .  T
C1265      C1266   1.207       .  T
C1267      C1268   1.412       .  A
C1267      C1272   1.392       .  A
C1267      H1273   1.081       .  S
C1268      C1269   1.409       .  A
C1269      C1270   1.408       .  A
C1269      H1274   1.069       .  S
C1270      C1271   1.410       .  A
C1270      H1275   1.081       .  S
C1271      C1272   1.401       .  A
C1272      H1276   1.083       .  S
C1277      C1278   1.408       .  A
C1277      C1282   1.401       .  A
C1277      H1283   1.081       .  S
C1278      C1279   1.405       .  A
C1279      C1280   1.394       .  A
C1279      H1284   1.082       .  S
C1280      C1281   1.406       .  A
C1280      H1285   1.080       .  S
C1281      C1282   1.406       .  A
C1282      H1286   1.082       .  S
C1287      C1288   1.346       .  D
C1287      H1289   1.087       .  S
C1288      H1290   1.087       .  S
C1291      C1292   1.211       .  T
C1293      C1294   1.210       .  T
C1295      C1296   1.204       .  T
O1297      C1300   1.267       .  A
O1297     Cd1302   2.481       .  S
C1298      O1307   1.261       .  A
C1298      O1303   1.270       .  A
C1298      C1726   1.433       .  S
O1299      C1305   1.268       .  A
O1299     Cd1302   2.497       .  S
C1300      O1308   1.266       .  A
C1300      C1719   1.479       .  S
C1301      O1306   1.266       .  A
C1301      O1304   1.265       .  A
C1301      C1723   1.438       .  S
Cd1302     O1309   2.420       .  S
Cd1302     O1308   2.469       .  S
Cd1302     O1307   2.407       .  S
Cd1302     O1303   2.499       .  S
Cd1302     O1306   2.466       .  S
Cd1302     O1304   2.468       .  S
C1305      O1309   1.261       .  A
C1305      C1728   1.433       .  S
C1310      C1312   1.538       .  S
C1310      C1314   1.524       .  S
C1310      C1313   1.534       .  S
C1310      C1710   1.527       .  S
C1311      C1315   1.555       .  S
C1311      C1317   1.561       .  S
C1311      C1316   1.539       .  S
C1311      C1700   1.536       .  S
C1312      C1320   1.382       .  A
C1312      C1315   1.404       .  A
C1313      C1324   1.377       .  A
C1313      C1316   1.389       .  A
C1314      C1317   1.404       .  A
C1315      C1318   1.391       .  A
C1316      C1322   1.383       .  A
C1318      N1319   1.351       .  A
C1318      H1331   1.081       .  S
N1319      C1320   1.349       .  A
N1319      C1698   1.405       .  S
C1320      H1321   1.083       .  S
C1322      N1323   1.353       .  A
C1322      H1332   1.083       .  S
N1323      C1324   1.352       .  A
N1323      C1727   1.401       .  S
C1324      H1330   1.081       .  S
C1325      N1326   1.360       .  A
C1325      H1327   1.076       .  S
N1326      C1328   1.345       .  A
N1326      C1695   1.403       .  S
C1328      H1329   1.083       .  S
C1333      C1335   1.530       .  S
C1333      C1337   1.544       .  S
C1333      C1336   1.544       .  S
C1333      C1713   1.529       .  S
C1334      C1338   1.537       .  S
C1334      C1340   1.550       .  S
C1334      C1339   1.537       .  S
C1334      C1684   1.526       .  S
C1335      C1343   1.380       .  A
C1335      C1338   1.381       .  A
C1336      C1347   1.384       .  A
C1336      C1339   1.386       .  A
C1337      C1340   1.432       .  A
C1338      C1341   1.384       .  A
C1339      C1345   1.379       .  A
C1341      N1342   1.352       .  A
C1341      H1354   1.083       .  S
N1342      C1343   1.353       .  A
N1342      C1725   1.402       .  S
C1343      H1344   1.082       .  S
C1345      N1346   1.346       .  A
C1345      H1355   1.082       .  S
N1346      C1347   1.353       .  A
N1346      C1693   1.397       .  S
C1347      H1353   1.082       .  S
C1348      N1349   1.357       .  A
C1348      H1350   1.083       .  S
N1349      C1351   1.344       .  A
N1349      C1681   1.408       .  S
C1351      H1352   1.083       .  S
O1356      C1359   1.267       .  A
O1356     Cd1361   2.518       .  S
C1357      O1366   1.260       .  A
C1357      O1362   1.271       .  A
C1357      C1697   1.438       .  S
O1358      C1364   1.266       .  A
O1358     Cd1361   2.482       .  S
C1359      O1367   1.265       .  A
C1359      C1675   1.489       .  S
C1360      O1365   1.265       .  A
C1360      O1363   1.267       .  A
C1360      C1679   1.442       .  S
Cd1361     O1368   2.404       .  S
Cd1361     O1367   2.488       .  S
Cd1361     O1366   2.418       .  S
Cd1361     O1362   2.512       .  S
Cd1361     O1365   2.465       .  S
Cd1361     O1363   2.482       .  S
C1364      O1368   1.261       .  A
C1364      C1694   1.426       .  S
O1369      C1372   1.266       .  A
O1369     Cd1374   2.519       .  S
C1370      O1379   1.260       .  A
C1370      O1375   1.269       .  A
C1370      C1671   1.435       .  S
O1371      C1377   1.266       .  A
O1371     Cd1374   2.492       .  S
C1372      O1380   1.265       .  A
C1372      C1676   1.489       .  S
C1373      O1378   1.264       .  A
C1373      O1376   1.266       .  A
C1373      C1682   1.444       .  S
Cd1374     O1381   2.409       .  S
Cd1374     O1380   2.489       .  S
Cd1374     O1379   2.421       .  S
Cd1374     O1375   2.512       .  S
Cd1374     O1378   2.477       .  S
Cd1374     O1376   2.487       .  S
C1377      O1381   1.261       .  A
C1377      C1673   1.428       .  S
C1382      C1384   1.531       .  S
C1382      C1386   1.526       .  S
C1382      C1385   1.535       .  S
C1382      C1662   1.531       .  S
C1383      C1387   1.558       .  S
C1383      C1389   1.558       .  S
C1383      C1388   1.542       .  S
C1383      C1650   1.542       .  S
C1384      C1392   1.375       .  A
C1384      C1387   1.395       .  A
C1385      C1396   1.376       .  A
C1385      C1388   1.396       .  A
C1386      C1400   1.370       .  A
C1386      C1389   1.409       .  A
C1387      C1390   1.392       .  A
C1388      C1394   1.384       .  A
C1389      C1397   1.391       .  A
C1390      N1391   1.354       .  A
C1390      H1403   1.081       .  S
N1391      C1392   1.349       .  A
N1391      C1672   1.402       .  S
C1392      H1393   1.083       .  S
C1394      N1395   1.355       .  A
C1394      H1404   1.083       .  S
N1395      C1396   1.350       .  A
N1395      C1660   1.401       .  S
C1396      H1402   1.081       .  S
C1397      N1398   1.357       .  A
C1397      H1399   1.079       .  S
N1398      C1400   1.346       .  A
C1400      H1401   1.083       .  S
C1405      C1407   1.528       .  S
C1405      C1409   1.545       .  S
C1405      C1408   1.546       .  S
C1405      C1665   1.532       .  S
C1406      C1410   1.534       .  S
C1406      C1412   1.546       .  S
C1406      C1411   1.542       .  S
C1406      C1687   1.525       .  S
C1407      C1415   1.378       .  A
C1407      C1410   1.378       .  A
C1408      C1419   1.383       .  A
C1408      C1411   1.391       .  A
C1409      C1423   1.376       .  A
C1409      C1412   1.432       .  A
C1410      C1413   1.384       .  A
C1411      C1417   1.381       .  A
C1412      C1420   1.391       .  A
C1413      N1414   1.353       .  A
C1413      H1426   1.083       .  S
N1414      C1415   1.352       .  A
N1414      C1646   1.402       .  S
C1415      H1416   1.082       .  S
C1417      N1418   1.348       .  A
C1417      H1427   1.082       .  S
N1418      C1419   1.354       .  A
N1418      C1674   1.399       .  S
C1419      H1425   1.082       .  S
C1420      N1421   1.353       .  A
C1420      H1422   1.083       .  S
N1421      C1423   1.344       .  A
C1423      H1424   1.083       .  S
O1428      C1431   1.267       .  A
O1428     Cd1433   2.505       .  S
C1429      O1438   1.267       .  A
C1429      O1434   1.265       .  A
C1429      C1639   1.477       .  S
O1430      C1436   1.264       .  A
O1430     Cd1433   2.474       .  S
C1431      O1439   1.261       .  A
C1431      C1645   1.435       .  S
C1432      O1437   1.266       .  A
C1432      O1435   1.261       .  A
C1432      C1659   1.434       .  S
Cd1433     O1440   2.485       .  S
Cd1433     O1439   2.424       .  S
Cd1433     O1438   2.480       .  S
Cd1433     O1434   2.465       .  S
Cd1433     O1437   2.483       .  S
Cd1433     O1435   2.451       .  S
C1436      O1440   1.265       .  A
C1436      C1643   1.441       .  S
O1441      C1444   1.270       .  A
O1441     Cd1446   2.535       .  S
C1442      O1451   1.264       .  A
C1442      O1447   1.268       .  A
C1442      C1629   1.489       .  S
O1443      C1449   1.262       .  A
O1443     Cd1446   2.455       .  S
C1444      O1452   1.260       .  A
C1444      C1636   1.443       .  S
C1445      O1450   1.266       .  A
C1445      O1448   1.263       .  A
C1445      C1637   1.430       .  S
Cd1446     O1453   2.499       .  S
Cd1446     O1452   2.428       .  S
Cd1446     O1451   2.494       .  S
Cd1446     O1447   2.516       .  S
Cd1446     O1450   2.480       .  S
Cd1446     O1448   2.421       .  S
C1449      O1453   1.267       .  A
C1449      C1633   1.440       .  S
C1454      C1456   1.531       .  S
C1454      C1458   1.545       .  S
C1454      C1457   1.546       .  S
C1454      C1620   1.536       .  S
C1455      C1459   1.533       .  S
C1455      C1461   1.545       .  S
C1455      C1460   1.542       .  S
C1455      C1610   1.527       .  S
C1456      C1464   1.381       .  A
C1456      C1459   1.381       .  A
C1457      C1468   1.383       .  A
C1457      C1460   1.391       .  A
C1458      C1472   1.375       .  A
C1458      C1461   1.432       .  A
C1459      C1462   1.381       .  A
C1460      C1466   1.383       .  A
C1461      C1469   1.388       .  A
C1462      N1463   1.351       .  A
C1462      H1475   1.083       .  S
N1463      C1464   1.355       .  A
N1463      C1607   1.401       .  S
C1464      H1465   1.082   1_556  S
C1466      N1467   1.348       .  A
C1466      H1476   1.082       .  S
N1467      C1468   1.351       .  A
N1467      C1638   1.399       .  S
C1468      H1474   1.082       .  S
C1469      N1470   1.353       .  A
C1469      H1471   1.083       .  S
N1470      C1472   1.344       .  A
C1472      H1473   1.083       .  S
C1477      C1479   1.548       .  S
C1477      C1481   1.520       .  S
C1477      C1480   1.538       .  S
C1477      C1623   1.530       .  S
C1478      C1482   1.558       .  S
C1478      C1484   1.547       .  S
C1478      C1483   1.538       .  S
C1478      C1653   1.533       .  S
C1479      C1487   1.382       .  A
C1479      C1482   1.422       .  A
C1480      C1491   1.377       .  A
C1480      C1483   1.389       .  A
C1481      C1495   1.373       .  A
C1481      C1484   1.389       .  A
C1482      C1485   1.399       .  A
C1483      C1489   1.382       .  A
C1484      C1492   1.388       .  A
C1485      N1486   1.351       .  A
C1485      H1498   1.081       .  S
N1486      C1487   1.345       .  A
N1486      C1635   1.409   1_554  S
C1487      H1488   1.083   1_554  S
C1489      N1490   1.351       .  A
C1489      H1499   1.082       .  S
N1490      C1491   1.352       .  A
N1490      C1604   1.398       .  S
C1491      H1497   1.082       .  S
C1492      N1493   1.362       .  A
C1492      H1494   1.082       .  S
N1493      C1495   1.352       .  A
C1495      H1496   1.083       .  S
O1500      C1503   1.267       .  A
O1500     Cd1505   2.474       .  S
C1501      O1510   1.260       .  A
C1501      O1506   1.269       .  A
C1501      C1608   1.432       .  S
O1502      C1508   1.267       .  A
O1502     Cd1505   2.471       .  S
C1503      O1511   1.267       .  A
C1503      C1640   1.478       .  S
C1504      O1509   1.264       .  A
C1504      O1507   1.266       .  A
C1504      C1648   1.434       .  S
Cd1505     O1512   2.417       .  S
Cd1505     O1511   2.457       .  S
Cd1505     O1510   2.403       .  S
Cd1505     O1506   2.499       .  S
Cd1505     O1509   2.459       .  S
Cd1505     O1507   2.462       .  S
C1508      O1512   1.261       .  A
C1508      C1603   1.428       .  S
O1513      C1516   1.267       .  A
O1513     Cd1518   2.477       .  S
C1514      O1523   1.262       .  A
C1514      O1519   1.270       .  A
C1514      C1600   1.436       .  S
O1515      C1521   1.268       .  A
O1515     Cd1518   2.484       .  S
C1516      O1524   1.266       .  A
C1516      C1720   1.479       .  S
C1517      O1522   1.265       .  A
C1517      O1520   1.266       .  A
C1517      C1696   1.436       .  S
Cd1518     O1525   2.407       .  S
Cd1518     O1524   2.460       .  S
Cd1518     O1523   2.416       .  S
Cd1518     O1519   2.499       .  S
Cd1518     O1522   2.451       .  S
Cd1518     O1520   2.469       .  S
C1521      O1525   1.261       .  A
C1521      C1602   1.429       .  S
C1526      C1528   1.529       .  S
C1526      C1530   1.556       .  S
C1526      C1529   1.529       .  S
C1526      C1590   1.529       .  S
C1527      C1531   1.530       .  S
C1527      C1533   1.558       .  S
C1527      C1532   1.540       .  S
C1527      C1613   1.526       .  S
C1528      C1536   1.379       .  A
C1528      C1531   1.373       .  A
C1529      C1540   1.374       .  A
C1529      C1532   1.380       .  A
C1530      C1533   1.445       .  A
C1531      C1534   1.386       .  A
C1532      C1538   1.383       .  A
C1534      N1535   1.354       .  A
C1534      H1547   1.082       .  S
N1535      C1536   1.352       .  A
N1535      C1599   1.404       .  S
C1536      H1537   1.083       .  S
C1538      N1539   1.352       .  A
C1538      H1548   1.082       .  S
N1539      C1540   1.352       .  A
N1539      C1587   1.396       .  S
C1540      H1546   1.083       .  S
C1541      N1542   1.351   1_455  A
C1541      H1543   1.083   1_455  S
N1542      C1544   1.346       .  A
N1542      C1634   1.405       .  S
C1544      H1545   1.081       .  S
C1549      C1551   1.550       .  S
C1549      C1553   1.543       .  S
C1549      C1552   1.538       .  S
C1549      C1593   1.539       .  S
C1550      C1554   1.544       .  S
C1550      C1556   1.544       .  S
C1550      C1555   1.537       .  S
C1550      C1703   1.528       .  S
C1551      C1559   1.380       .  A
C1551      C1554   1.406       .  A
C1552      C1563   1.376       .  A
C1552      C1555   1.387       .  A
C1553      C1556   1.405       .  A
C1554      C1557   1.393       .  A
C1555      C1561   1.385       .  A
C1557      N1558   1.353       .  A
C1557      H1570   1.082       .  S
N1558      C1559   1.347       .  A
N1558      C1586   1.406       .  S
C1559      H1560   1.082       .  S
C1561      N1562   1.351       .  A
C1561      H1571   1.082       .  S
N1562      C1563   1.351       .  A
N1562      C1601   1.398       .  S
C1563      H1569   1.083       .  S
C1564      N1565   1.355   1_455  A
C1564      H1566   1.082       .  S
N1565      C1567   1.352       .  A
N1565      C1724   1.403       .  S
C1567      H1568   1.075       .  S
O1572      C1575   1.267       .  A
O1572     Cd1577   2.527       .  S
C1573      O1582   1.260       .  A
C1573      O1578   1.270       .  A
C1573      C1585   1.440       .  S
O1574      C1580   1.264       .  A
O1574     Cd1577   2.479       .  S
C1575      O1583   1.264       .  A
C1575      C1630   1.488       .  S
C1576      O1581   1.262       .  A
C1576      O1579   1.267       .  A
C1576      C1605   1.438       .  S
Cd1577     O1584   2.416       .  S
Cd1577     O1583   2.484       .  S
Cd1577     O1582   2.426       .  S
Cd1577     O1578   2.522       .  S
Cd1577     O1581   2.445       .  S
Cd1577     O1579   2.495       .  S
C1580      O1584   1.263       .  A
C1580      C1588   1.427       .  S
C1585      C1586   1.209       .  T
C1587      C1588   1.201       .  T
C1589      C1590   1.405       .  A
C1589      C1594   1.379       .  A
C1589      H1595   1.084       .  S
C1590      C1591   1.406       .  A
C1591      C1592   1.413       .  A
C1592      C1593   1.414       .  A
C1593      C1594   1.404       .  A
C1594      H1598   1.083       .  S
C1599      C1600   1.207       .  T
C1601      C1602   1.203       .  T
C1603      C1604   1.202       .  T
C1605      C1606   1.208       .  T
C1607      C1608   1.205   1_556  T
C1609      C1610   1.414       .  A
C1609      C1614   1.422       .  A
C1609      H1615   1.081       .  S
C1610      C1611   1.400       .  A
C1611      C1612   1.370       .  A
C1611      H1616   1.083       .  S
C1612      C1613   1.402       .  A
C1612      H1617   1.083       .  S
C1613      C1614   1.412       .  A
C1614      H1618   1.082       .  S
C1619      C1620   1.409       .  A
C1619      C1624   1.397       .  A
C1619      H1625   1.079       .  S
C1620      C1621   1.406   1_556  A
C1621      C1622   1.402       .  A
C1621      H1626   1.082       .  S
C1622      C1623   1.409       .  A
C1622      H1627   1.082       .  S
C1623      C1624   1.403   1_554  A
C1624      H1628   1.082       .  S
C1629      C1630   1.348       .  D
C1629      H1631   1.087       .  S
C1630      H1632   1.086       .  S
C1633      C1634   1.209       .  T
C1635      C1636   1.211       .  T
C1637      C1638   1.203       .  T
C1639      C1640   1.344       .  D
C1639      H1641   1.087       .  S
C1640      H1642   1.087       .  S
C1643      C1644   1.209       .  T
C1645      C1646   1.206       .  T
C1647      C1648   1.205       .  T
C1649      C1650   1.412       .  A
C1649      C1654   1.407       .  A
C1649      H1655   1.076       .  S
C1650      C1651   1.410       .  A
C1651      C1652   1.392       .  A
C1651      H1656   1.073       .  S
C1652      C1653   1.401       .  A
C1652      H1657   1.084       .  S
C1653      C1654   1.407       .  A
C1654      H1658   1.078       .  S
C1659      C1660   1.206       .  T
C1661      C1662   1.407       .  A
C1661      C1666   1.400       .  A
C1661      H1667   1.079       .  S
C1662      C1663   1.406       .  A
C1663      C1664   1.397       .  A
C1663      H1668   1.083       .  S
C1664      C1665   1.405       .  A
C1664      H1669   1.079       .  S
C1665      C1666   1.407       .  A
C1666      H1670   1.083       .  S
C1671      C1672   1.206       .  T
C1673      C1674   1.202       .  T
C1675      C1676   1.349       .  D
C1675      H1677   1.086       .  S
C1676      H1678   1.086       .  S
C1679      C1680   1.210       .  T
C1681      C1682   1.211       .  T
C1683      C1684   1.412       .  A
C1683      C1688   1.421       .  A
C1683      H1689   1.082       .  S
C1684      C1685   1.402       .  A
C1685      C1686   1.368       .  A
C1685      H1690   1.083       .  S
C1686      C1687   1.399       .  A
C1686      H1691   1.083       .  S
C1687      C1688   1.414       .  A
C1688      H1692   1.082       .  S
C1693      C1694   1.201       .  T
C1695      C1696   1.207       .  T
C1697      C1698   1.208       .  T
C1699      C1700   1.412       .  A
C1699      C1704   1.390       .  A
C1699      H1705   1.081       .  S
C1700      C1701   1.406       .  A
C1701      C1702   1.403       .  A
C1701      H1706   1.067       .  S
C1702      C1703   1.408       .  A
C1702      H1707   1.081       .  S
C1703      C1704   1.399       .  A
C1704      H1708   1.082       .  S
C1709      C1710   1.407       .  A
C1709      C1714   1.400       .  A
C1709      H1715   1.081       .  S
C1710      C1711   1.405       .  A
C1711      C1712   1.394       .  A
C1711      H1716   1.082       .  S
C1712      C1713   1.406       .  A
C1712      H1717   1.081       .  S
C1713      C1714   1.406       .  A
C1714      H1718   1.082       .  S
C1719      C1720   1.346       .  D
C1719      H1721   1.087       .  S
C1720      H1722   1.087       .  S
C1723      C1724   1.207       .  T
C1725      C1726   1.205       .  T
C1727      C1728   1.205       .  T
