geometry optimzed in LAMMPS
_audit_creation_date              2020-12-01 
_audit_creation_method            'lammps2cif' 
_symmetry_space_group_name_H-M    'P1' 
_symmetry_Int_Tables_number       1 
_symmetry_cell_setting            triclinic 
loop_ 
_symmetry_equiv_pos_as_xyz 
  x,y,z 
_cell_length_a                    71.80410766 
_cell_length_b                    71.65095824690731 
_cell_length_c                    160.1203877179885 
_cell_angle_alpha                 90.16592266403426 
_cell_angle_beta                  89.80702891538866 
_cell_angle_gamma                 120.26583694683927 
loop_ 
_atom_site_label 
_atom_site_type_symbol 
_atom_site_fract_x 
_atom_site_fract_y 
_atom_site_fract_z 
_atom_site_charge 
N1          N  0.95996461  0.97931264  0.87248078    -0.26800
N2          N  0.96370250  0.96301895  0.87251191    -0.34600
C3          C  0.94471670  0.94433657  0.87215577     0.01600
C4          C  0.92832525  0.94915348  0.87183003     0.07600
C5          C  0.93859277  0.97145786  0.87205667    -0.05500
H6          H  0.94305285  0.92847742  0.87190724     0.08300
H7          H  0.93114473  0.98133149  0.87178050     0.09500
Cu8        Cu  0.99448056  0.96690259  0.87254403     0.44200
Cu9        Cu  0.98374812  0.01165901  0.87254757     0.42000
Cu10       Cu  0.03828161  0.02261752  0.87257852     0.43900
N11         N  0.02697844  0.97591439  0.87246595    -0.34200
N12         N  0.04283239  0.99626131  0.87263037    -0.28400
C13         C  0.06182533  0.99681651  0.87238577    -0.04500
C14         C  0.05781423  0.97583231  0.87200448     0.07700
C15         C  0.03553125  0.96297379  0.87207116     0.01500
H16         H  0.07738385  0.01149082  0.87229636     0.09100
H17         H  0.02619741  0.94552602  0.87173491     0.08200
N18         N  0.03029831  0.04660426  0.87172074    -0.35600
N19         N  0.01021920  0.04262553  0.87187244    -0.27800
C20         C  0.01034850  0.06141149  0.87123299    -0.03000
C21         C  0.03154084  0.07797373  0.87057750     0.05600
C22         C  0.04375588  0.06800082  0.87088511     0.03700
H23         H  0.99604871  0.06282862  0.87111164     0.08800
H24         H  0.06113871  0.07570254  0.87057461     0.07600
N25         N  0.20315746  0.87491121  0.84116497    -0.26800
N26         N  0.18428445  0.87392892  0.84156792    -0.34600
C27         C  0.17164460  0.86152084  0.83531061     0.01600
C28         C  0.18301240  0.85430197  0.83065830     0.07600
C29         C  0.20296571  0.86308781  0.83455090    -0.05500
H30         H  0.15565816  0.85875849  0.83404524     0.08300
H31         H  0.21654596  0.86152758  0.83258680     0.09500
Cu32       Cu  0.17704050  0.89150469  0.84985079     0.44200
Cu33       Cu  0.22860797  0.89401351  0.84934582     0.42000
Cu34       Cu  0.22094867  0.93483417  0.86048998     0.43900
N35         N  0.17378584  0.91389689  0.85687283    -0.34200
N36         N  0.19012155  0.93072968  0.86051059    -0.28400
C37         C  0.18287492  0.94298797  0.86405901    -0.04500
C38         C  0.16088134  0.93313147  0.86261327     0.07700
C39         C  0.15572964  0.91475640  0.85806214     0.01500
H40         H  0.19279373  0.95778580  0.86748510     0.09100
H41         H  0.14009849  0.90312861  0.85558023     0.08200
N42         N  0.24868016  0.93254066  0.86109614    -0.35600
N43         N  0.25118419  0.91716717  0.85759362    -0.27800
C44         C  0.27013293  0.91946358  0.86018485    -0.03000
C45         C  0.28004519  0.93729672  0.86542978     0.05600
C46         C  0.26603388  0.94518335  0.86579926     0.03700
H47         H  0.27625318  0.90899380  0.85837126     0.08800
H48         H  0.26787690  0.95863525  0.86952311     0.07600
N49         N  0.12227485  0.32351716  0.83985225    -0.26800
N50         N  0.12682266  0.30784608  0.84061937    -0.34600
C51         C  0.13809923  0.30780862  0.83391940     0.01600
C52         C  0.14080013  0.32412100  0.82859999     0.07600
C53         C  0.13059826  0.33381805  0.83255611    -0.05500
H54         H  0.14318355  0.29612136  0.83286329     0.08300
H55         H  0.12884916  0.34699644  0.83021408     0.09500
Cu56       Cu  0.11518069  0.28457608  0.84987421     0.44200
Cu57       Cu  0.10361743  0.32907731  0.84853929     0.42000
Cu58       Cu  0.07177585  0.28136011  0.86132795     0.43900
N59         N  0.09554767  0.25825904  0.85728016    -0.34200
N60         N  0.07861264  0.25656822  0.86123529    -0.28400
C61         C  0.06758985  0.23692830  0.86479073    -0.04500
C62         C  0.07819931  0.22575345  0.86298125     0.07700
C63         C  0.09588870  0.23979872  0.85822413     0.01500
H64         H  0.05277472  0.23112056  0.86829201     0.09100
H65         H  0.10761200  0.23654750  0.85534447     0.08200
N66         N  0.07038995  0.30942728  0.86224676    -0.35600
N67         N  0.08251270  0.32740958  0.85799878    -0.27800
C68         C  0.07849248  0.34283134  0.86085510    -0.03000
C69         C  0.06292479  0.33383737  0.86709128     0.05600
C70         C  0.05821543  0.31271649  0.86774776     0.03700
H71         H  0.08615731  0.35922688  0.85853484     0.08800
H72         H  0.04718653  0.30069163  0.87211512     0.07600
N73         N  0.68109316  0.80351731  0.84017145    -0.26800
N74         N  0.69825976  0.82310711  0.84062285    -0.34600
C75         C  0.69915346  0.83447988  0.83383379     0.01600
C76         C  0.68183083  0.82152923  0.82877291     0.07600
C77         C  0.67063353  0.80197892  0.83298328    -0.05500
H78         H  0.71212872  0.85067414  0.83250379     0.08300
H79         H  0.65637043  0.78749974  0.83086094     0.09500
Cu80       Cu  0.72227022  0.83303801  0.84945818     0.44200
Cu81       Cu  0.67425432  0.77937088  0.84904941     0.42000
Cu82       Cu  0.72307443  0.79005793  0.86002285     0.43900
N83         N  0.74859133  0.83734476  0.85619124    -0.34200
N84         N  0.74943329  0.82114115  0.85970634    -0.28400
C85         C  0.76914779  0.82861257  0.86301395    -0.04500
C86         C  0.78118484  0.85061951  0.86152915     0.07700
C87         C  0.76763870  0.85560815  0.85719830     0.01500
H88         H  0.77426321  0.81877716  0.86628508     0.09100
H89         H  0.77148703  0.87120321  0.85474195     0.08200
N90         N  0.69328779  0.76238183  0.86165381    -0.35600
N91         N  0.67509181  0.75877617  0.85815213    -0.27800
C92         C  0.65867006  0.74035384  0.86136471    -0.03000
C93         C  0.66711582  0.73196472  0.86704033     0.05600
C94         C  0.68905225  0.74632468  0.86700901     0.03700
H95         H  0.64191038  0.73349926  0.85965199     0.08800
H96         H  0.70106205  0.74558576  0.87082990     0.07600
N97         N  0.29840782  0.67764345  0.72567397    -0.26800
N98         N  0.31499179  0.69743130  0.72662189    -0.34600
C99         C  0.30763729  0.71133431  0.72720518     0.01600
C100        C  0.28542248  0.69973933  0.72648747     0.07600
C101        C  0.28011504  0.67846425  0.72548538    -0.05500
H102        H  0.31772023  0.72856870  0.72815110     0.08300
H103        H  0.26409533  0.66449132  0.72501325     0.09500
Cu104      Cu  0.34681985  0.70462053  0.72720438     0.44200
Cu105      Cu  0.30094824  0.65011769  0.72555491     0.42000
Cu106      Cu  0.35464873  0.65835872  0.72694776     0.43900
N107        N  0.37689055  0.70708095  0.72745537    -0.34200
N108        N  0.37969882  0.69020120  0.72754076    -0.28400
C109        C  0.40094096  0.69720996  0.72788503    -0.04500
C110        C  0.41202620  0.71954926  0.72790876     0.07700
C111        C  0.39629310  0.72527835  0.72762400     0.01500
H112        H  0.40778258  0.68678080  0.72799603     0.09100
H113        H  0.39872498  0.74145871  0.72763889     0.08200
N114        N  0.32703868  0.62802685  0.72661921    -0.35600
N115        N  0.30731370  0.62502845  0.72636348    -0.27800
C116        C  0.29296727  0.60372403  0.72678044    -0.03000
C117        C  0.30423154  0.59279625  0.72720218     0.05600
C118        C  0.32578284  0.60867995  0.72705342     0.03700
H119        H  0.27564385  0.59674697  0.72675648     0.08800
H120        H  0.33954134  0.60639778  0.72746689     0.07600
N121        N  0.12828920  0.77462663  0.76522250    -0.26800
N122        N  0.14874467  0.78004734  0.76439056    -0.34600
C123        C  0.15927217  0.78880101  0.77154227     0.01600
C124        C  0.14494952  0.78910490  0.77724119     0.07600
C125        C  0.12538598  0.78002957  0.77302237    -0.05500
H126        H  0.17617221  0.79434548  0.77251990     0.08300
H127        H  0.11016324  0.77734575  0.77546138     0.09500
Cu128      Cu  0.16199339  0.77437558  0.75391040     0.44200
Cu129      Cu  0.10576736  0.75970964  0.75551813     0.42000
Cu130      Cu  0.12737533  0.74561447  0.73710878     0.43900
N131        N  0.17145056  0.76222245  0.74412628    -0.34200
N132        N  0.15831870  0.75048919  0.73805752    -0.28400
C133        C  0.16813325  0.74233307  0.73334887    -0.04500
C134        C  0.18849143  0.74953263  0.73661227     0.07700
C135        C  0.19005303  0.76217503  0.74340733     0.01500
H136        H  0.16078455  0.73153880  0.72810200     0.09100
H137        H  0.20321319  0.76971645  0.74781386     0.08200
N138        N  0.09710099  0.74261987  0.73767173    -0.35600
N139        N  0.08863811  0.74656175  0.74433957    -0.27800
C140        C  0.06830976  0.74163429  0.74247901    -0.03000
C141        C  0.06408596  0.73473314  0.73423259     0.05600
C142        C  0.08271818  0.73566956  0.73140503     0.03700
H143        H  0.05756418  0.74335735  0.74675049     0.08800
H144        H  0.08549328  0.73116893  0.72526878     0.07600
N145        N  0.22363086  0.35588629  0.76357813    -0.26800
N146        N  0.21682889  0.36979427  0.76254601    -0.34600
C147        C  0.20545351  0.36938570  0.76927606     0.01600
C148        C  0.20491044  0.35451885  0.77488052     0.07600
C149        C  0.21657041  0.34617383  0.77106870    -0.05500
H150        H  0.19840305  0.37952523  0.77006325     0.08300
H151        H  0.21990332  0.33416470  0.77358385     0.09500
Cu152      Cu  0.22412111  0.39037346  0.75249116     0.44200
Cu153      Cu  0.24226755  0.35123361  0.75460918     0.42000
Cu154      Cu  0.25808296  0.38889884  0.73691190     0.43900
N155        N  0.23767960  0.41368345  0.74330569    -0.34200
N156        N  0.25123504  0.41371697  0.73771003    -0.28400
C157        C  0.25983230  0.43225315  0.73334585    -0.04500
C158        C  0.25109645  0.44437008  0.73631678     0.07700
C159        C  0.23701622  0.43204409  0.74260404     0.01500
H160        H  0.27205454  0.43685213  0.72856507     0.09100
H161        H  0.22806786  0.43667975  0.74672935     0.08200
N162        N  0.26203147  0.36214924  0.73725063    -0.35600
N163        N  0.25736889  0.34903650  0.74372008    -0.27800
C164        C  0.26232899  0.33373245  0.74173447    -0.03000
C165        C  0.27003300  0.33719996  0.73360047     0.05600
C166        C  0.26957365  0.35529791  0.73096864     0.03700
H167        H  0.25984290  0.32064536  0.74580697     0.08800
H168        H  0.27447955  0.36304110  0.72493018     0.07600
N169        N  0.65129910  0.87348628  0.76398728    -0.26800
N170        N  0.63602494  0.85298309  0.76320152    -0.34600
C171        C  0.63616171  0.84190252  0.76991580     0.01600
C172        C  0.65224595  0.85592960  0.77524859     0.07600
C173        C  0.66159693  0.87587037  0.77129881    -0.05500
H174        H  0.62500204  0.82487359  0.77088866     0.08300
H175        H  0.67468920  0.89102214  0.77360568     0.09500
Cu176      Cu  0.61394882  0.84014922  0.75357303     0.44200
Cu177      Cu  0.65699459  0.89713269  0.75504923     0.42000
Cu178      Cu  0.61609162  0.87722442  0.73866692     0.43900
N179        N  0.59008338  0.83165807  0.74473531    -0.34200
N180        N  0.59035901  0.84586138  0.73943144    -0.28400
C181        C  0.57191614  0.83648959  0.73502871    -0.04500
C182        C  0.55955045  0.81527196  0.73764553     0.07700
C183        C  0.57158820  0.81273228  0.74379671     0.01500
H184        H  0.56775937  0.84460283  0.73033778     0.09100
H185        H  0.56687796  0.79851250  0.74756060     0.08200
N186        N  0.64407168  0.90719112  0.73843686    -0.35600
N187        N  0.65866810  0.91505620  0.74445295    -0.27800
C188        C  0.67435103  0.93509113  0.74224250    -0.03000
C189        C  0.66948490  0.93974857  0.73441720     0.05600
C190        C  0.65024998  0.92167608  0.73221530     0.03700
H191        H  0.68848572  0.94527357  0.74595255     0.08800
H192        H  0.64120953  0.91929020  0.72652996     0.07600
N193        N  0.96574902  0.00547539  0.06058297    -0.26800
N194        N  0.98184141  0.02566798  0.06019193    -0.34600
C195        C  0.97383689  0.03902969  0.06038882     0.01600
C196        C  0.95163845  0.02663509  0.06085341     0.07600
C197        C  0.94701280  0.00543124  0.06094536    -0.05500
H198        H  0.98351398  0.05647709  0.06028205     0.08300
H199        H  0.93129409  0.99106248  0.06150312     0.09500
Cu200      Cu  0.01396973  0.03438559  0.05964685     0.44200
Cu201      Cu  0.97013757  0.97910112  0.06109214     0.42000
Cu202      Cu  0.02537783  0.99077697  0.06030613     0.43900
N203        N  0.04479130  0.03903047  0.05975076    -0.34200
N204        N  0.04894260  0.02306178  0.06014050    -0.28400
C205        C  0.07036097  0.03137442  0.06067437    -0.04500
C206        C  0.08013267  0.05363896  0.06055718     0.07700
C207        C  0.06346962  0.05795961  0.05994669     0.01500
H208        H  0.07814789  0.02186497  0.06124487     0.09100
H209        H  0.06472619  0.07365331  0.05994024     0.08200
N210        N  0.99904520  0.95991550  0.06117261    -0.35600
N211        N  0.97891167  0.95571261  0.06165209    -0.27800
C212        C  0.96578988  0.93438796  0.06278516    -0.03000
C213        C  0.97827495  0.92472656  0.06298705     0.05600
C214        C  0.99927277  0.94134995  0.06191027     0.03700
H215        H  0.94849097  0.92661196  0.06354592     0.08800
H216        H  0.01372686  0.94019944  0.06196863     0.07600
N217        N  0.79827526  0.11137314  0.09778721    -0.26800
N218        N  0.81833590  0.11543191  0.09701871    -0.34600
C219        C  0.82958215  0.12580108  0.10386618     0.01600
C220        C  0.81609034  0.12845194  0.10928554     0.07600
C221        C  0.79631337  0.11911262  0.10523667    -0.05500
H222        H  0.84629200  0.13059010  0.10488537     0.08300
H223        H  0.78153986  0.11779728  0.10756524     0.09500
Cu224      Cu  0.82979663  0.10500109  0.08727988     0.44200
Cu225      Cu  0.77459896  0.09481208  0.08865362     0.42000
Cu226      Cu  0.79037264  0.06648579  0.07375670     0.43900
N227        N  0.83651828  0.08738166  0.07880747    -0.34200
N228        N  0.82148400  0.07219697  0.07406886    -0.28400
C229        C  0.82995611  0.06197476  0.06985492    -0.04500
C230        C  0.85144108  0.07135553  0.07202356     0.07700
C231        C  0.85510515  0.08744503  0.07769207     0.01500
H232        H  0.82108361  0.04863169  0.06559438     0.09100
H233        H  0.86988886  0.09780225  0.08102793     0.08200
N234        N  0.76136113  0.06581739  0.07343476    -0.35600
N235        N  0.75558823  0.07665216  0.07850509    -0.27800
C236        C  0.73600781  0.07303522  0.07611242    -0.03000
C237        C  0.72924917  0.05903883  0.06933633     0.05600
C238        C  0.74566934  0.05480968  0.06785196     0.03700
H239        H  0.72708506  0.07950421  0.07922925     0.08800
H240        H  0.74627180  0.04456249  0.06300818     0.07600
N241        N  0.32352984  0.20396891  0.09696200    -0.26800
N242        N  0.30567685  0.18484217  0.09702298    -0.34600
C243        C  0.30527999  0.17389675  0.10386251     0.01600
C244        C  0.32367354  0.18660143  0.10843911     0.07600
C245        C  0.33498990  0.20560402  0.10387964    -0.05500
H246        H  0.29199006  0.15815481  0.10553341     0.08300
H247        H  0.35002307  0.21980936  0.10560181     0.09500
Cu248      Cu  0.28061994  0.17458513  0.08868334     0.44200
Cu249      Cu  0.32994865  0.22736364  0.08776106     0.42000
Cu250      Cu  0.28099977  0.21503346  0.07614467     0.43900
N251        N  0.25490733  0.16874080  0.08124621    -0.34200
N252        N  0.25452528  0.18406847  0.07683209    -0.28400
C253        C  0.23557123  0.17558603  0.07278782    -0.04500
C254        C  0.22362773  0.15382164  0.07472421     0.07700
C255        C  0.23636566  0.15003890  0.08010686     0.01500
H256        H  0.23109487  0.18446913  0.06859072     0.09100
H257        H  0.23245560  0.13487877  0.08301662     0.08200
N258        N  0.31067228  0.24295395  0.07462319    -0.35600
N259        N  0.32879329  0.24732482  0.07841659    -0.27800
C260        C  0.34498693  0.26613625  0.07534797    -0.03000
C261        C  0.33648196  0.27393448  0.06944157     0.05600
C262        C  0.31474136  0.25880620  0.06919275     0.03700
H263        H  0.36162656  0.27365571  0.07731999     0.08800
H264        H  0.30272604  0.25898846  0.06519044     0.07600
N265        N  0.87702783  0.67592770  0.09599310    -0.26800
N266        N  0.87538320  0.69350627  0.09612893    -0.34600
C267        C  0.86425086  0.69325174  0.10290743     0.01600
C268        C  0.85847097  0.67466864  0.10736165     0.07600
C269        C  0.86679113  0.66395301  0.10279921    -0.05500
H270        H  0.86126492  0.70614675  0.10458219     0.08300
H271        H  0.86595646  0.64890215  0.10441779     0.09500
Cu272      Cu  0.89027838  0.71906511  0.08797116     0.44200
Cu273      Cu  0.89464835  0.67049599  0.08671722     0.42000
Cu274      Cu  0.93256349  0.72114185  0.07614287     0.43900
N275        N  0.91165450  0.74626117  0.08144731    -0.34200
N276        N  0.92823385  0.74752496  0.07735664    -0.28400
C277        C  0.94001061  0.76749089  0.07413455    -0.04500
C278        C  0.93021093  0.77923817  0.07629769     0.07700
C279        C  0.91225863  0.76526653  0.08092743     0.01500
H280        H  0.95442496  0.77290813  0.07040884     0.09100
H281        H  0.90068201  0.76871307  0.08382194     0.08200
N282        N  0.93025820  0.69156152  0.07378879    -0.35600
N283        N  0.91594097  0.67285490  0.07714746    -0.27800
C284        C  0.91815192  0.65700556  0.07350679    -0.03000
C285        C  0.93481939  0.66635161  0.06770678     0.05600
C286        C  0.94206091  0.68821072  0.06810836     0.03700
H287        H  0.90860848  0.64003638  0.07505663     0.08800
H288        H  0.95472541  0.70081919  0.06438099     0.07600
N289        N  0.70670400  0.32825816  0.20902733    -0.26800
N290        N  0.69029704  0.30856086  0.20776899    -0.34600
C291        C  0.69770438  0.29477535  0.20693602     0.01600
C292        C  0.71988068  0.30634371  0.20776950     0.07600
C293        C  0.72506507  0.32752370  0.20911284    -0.05500
H294        H  0.68766401  0.27763489  0.20576339     0.08300
H295        H  0.74100617  0.34146349  0.20986272     0.09500
Cu296      Cu  0.65871115  0.30151852  0.20729509     0.44200
Cu297      Cu  0.70294511  0.35506281  0.21007026     0.42000
Cu298      Cu  0.64803342  0.34549806  0.21086777     0.43900
N299        N  0.62828607  0.29774132  0.20762562    -0.34200
N300        N  0.62419995  0.31359840  0.20884123    -0.28400
C301        C  0.60277156  0.30552547  0.20834205    -0.04500
C302        C  0.59304941  0.28356193  0.20683711     0.07700
C303        C  0.60966278  0.27918181  0.20644197     0.01500
H304        H  0.59491173  0.31495765  0.20900974     0.09100
H305        H  0.60841061  0.26374410  0.20518844     0.08200
N306        N  0.67543065  0.37599780  0.21119064    -0.35600
N307        N  0.69527992  0.37938993  0.21056001    -0.27800
C308        C  0.70914545  0.40075151  0.20994497    -0.03000
C309        C  0.69751985  0.41132967  0.21029036     0.05600
C310        C  0.67621037  0.39516975  0.21113337     0.03700
H311        H  0.72638519  0.40799140  0.20913393     0.08800
H312        H  0.66220980  0.39710315  0.21125454     0.07600
N313        N  0.34676621  0.13371999  0.17434576    -0.26800
N314        N  0.36378397  0.15340894  0.17462310    -0.34600
C315        C  0.36454603  0.16425309  0.16770063     0.01600
C316        C  0.34722438  0.15087428  0.16272762     0.07600
C317        C  0.33616409  0.13159214  0.16713523    -0.05500
H318        H  0.37742164  0.18040850  0.16625624     0.08300
H319        H  0.32199792  0.11688405  0.16511019     0.09500
Cu320      Cu  0.38763548  0.16422695  0.18347817     0.44200
Cu321      Cu  0.34072994  0.11053862  0.18354802     0.42000
Cu322      Cu  0.38944150  0.12404902  0.19560061     0.43900
N323        N  0.41404184  0.17032675  0.19046439    -0.34200
N324        N  0.41526954  0.15514972  0.19465289    -0.28400
C325        C  0.43510849  0.16360854  0.19794398    -0.04500
C326        C  0.44676965  0.18517107  0.19571354     0.07700
C327        C  0.43293336  0.18890747  0.19099190     0.01500
H328        H  0.44056974  0.15472786  0.20167194     0.09100
H329        H  0.43650458  0.20379417  0.18792927     0.08200
N330        N  0.36011972  0.09592117  0.19700350    -0.35600
N331        N  0.34204983  0.09124158  0.19309374    -0.27800
C332        C  0.32597287  0.07232070  0.19610295    -0.03000
C333        C  0.33456861  0.06477622  0.20204867     0.05600
C334        C  0.35618252  0.08009198  0.20241730     0.03700
H335        H  0.30944069  0.06439837  0.19397117     0.08800
H336        H  0.36818434  0.07995576  0.20644503     0.07600
N337        N  0.86917423  0.21081266  0.17434550    -0.26800
N338        N  0.84965648  0.20834153  0.17472830    -0.34600
C339        C  0.83846361  0.19776415  0.16790650     0.01600
C340        C  0.85147500  0.19338958  0.16288542     0.07600
C341        C  0.87088741  0.20186526  0.16715965    -0.05500
H342        H  0.82230201  0.19437068  0.16654976     0.08300
H343        H  0.88533036  0.20201129  0.16511084     0.09500
Cu344      Cu  0.83958144  0.22219190  0.18364969     0.44200
Cu345      Cu  0.89261249  0.22787705  0.18346450     0.42000
Cu346      Cu  0.88055051  0.26415240  0.19569723     0.43900
N347        N  0.83414899  0.24290079  0.19085832    -0.34200
N348        N  0.84959369  0.25920687  0.19506106    -0.28400
C349        C  0.84142239  0.27046348  0.19872463    -0.04500
C350        C  0.81974421  0.26063443  0.19672536     0.07700
C351        C  0.81570382  0.24322403  0.19172849     0.01500
H352        H  0.85055859  0.28463791  0.20257919     0.09100
H353        H  0.80060530  0.23182465  0.18880778     0.08200
N354        N  0.90830878  0.26234864  0.19690409    -0.35600
N355        N  0.91238101  0.24854038  0.19293803    -0.27800
C356        C  0.93137189  0.25132348  0.19569962    -0.03000
C357        C  0.93963752  0.26788138  0.20153295     0.05600
C358        C  0.92465318  0.27447957  0.20210580     0.03700
H359        H  0.93898464  0.24258185  0.19338988     0.08800
H360        H  0.92550673  0.28716569  0.20605657     0.07600
N361        N  0.77355526  0.64522529  0.17190847    -0.26800
N362        N  0.77828663  0.62968945  0.17265688    -0.34600
C363        C  0.78804385  0.62860838  0.16565245     0.01600
C364        C  0.78979671  0.64430506  0.16020359     0.07600
C365        C  0.78048587  0.65460858  0.16436839    -0.05500
H366        H  0.79354862  0.61723287  0.16464916     0.08300
H367        H  0.77876897  0.66784929  0.16207642     0.09500
Cu368      Cu  0.77117344  0.60986466  0.18293552     0.44200
Cu369      Cu  0.75775363  0.65262407  0.18125893     0.42000
Cu370      Cu  0.74060482  0.61534037  0.19907218     0.43900
N371        N  0.75818696  0.58807153  0.19263609    -0.34200
N372        N  0.74573619  0.58932844  0.19842771    -0.28400
C373        C  0.73721325  0.57132129  0.20313633    -0.04500
C374        C  0.74492839  0.55828162  0.20017943     0.07700
C375        C  0.75826119  0.56947903  0.19355318     0.01500
H376        H  0.72581805  0.56774179  0.20817106     0.09100
H377        H  0.76633352  0.56393923  0.18936847     0.08200
N378        N  0.73831531  0.64308722  0.19864104    -0.35600
N379        N  0.74358875  0.65625731  0.19215939    -0.27800
C380        C  0.73942389  0.67216532  0.19409203    -0.03000
C381        C  0.73157506  0.66897655  0.20220822     0.05600
C382        C  0.73115691  0.65045704  0.20487048     0.03700
H383        H  0.74240404  0.68535223  0.18998194     0.08800
H384        H  0.72581005  0.64271336  0.21089102     0.07600
N385        N  0.32987877  0.62337680  0.04085813    -0.26800
N386        N  0.34984693  0.63984557  0.04124205    -0.34600
C387        C  0.36362054  0.63237477  0.04074479     0.01600
C388        C  0.35175171  0.61011154  0.04007791     0.07600
C389        C  0.33040347  0.60491695  0.04019833    -0.05500
H390        H  0.38099663  0.64247402  0.04075638     0.08300
H391        H  0.31631070  0.58900974  0.03958218     0.09500
Cu392      Cu  0.35766021  0.67182102  0.04195384     0.44200
Cu393      Cu  0.30311655  0.62713854  0.04062338     0.42000
Cu394      Cu  0.31397620  0.68266069  0.04007529     0.43900
N395        N  0.36219105  0.70266063  0.04125417    -0.34200
N396        N  0.34628453  0.70668051  0.04023165    -0.28400
C397        C  0.35468703  0.72810372  0.03927844    -0.04500
C398        C  0.37691529  0.73798949  0.03981496     0.07700
C399        C  0.38109808  0.72139012  0.04109926     0.01500
H400        H  0.34530786  0.73586130  0.03821136     0.09100
H401        H  0.39673855  0.72269618  0.04157072     0.08200
N402        N  0.28323986  0.65556786  0.04013886    -0.35600
N403        N  0.27938381  0.63545896  0.04013687    -0.27800
C404        C  0.25798876  0.62181414  0.03969500    -0.03000
C405        C  0.24788949  0.63389408  0.03950342     0.05600
C406        C  0.26434019  0.65521320  0.03982469     0.03700
H407        H  0.25038845  0.60439139  0.03948583     0.08800
H408        H  0.26276569  0.66944283  0.03957562     0.07600
N409        N  0.53579205  0.98442894  0.00787474    -0.26800
N410        N  0.51677159  0.96648118  0.00782892    -0.34600
C411        C  0.50600399  0.96570671  0.00089526     0.01600
C412        C  0.51862241  0.98398229  0.99621415     0.07600
C413        C  0.53749152  0.99564743  0.00083764    -0.05500
H414        H  0.49023739  0.95238355  0.99929911     0.08300
H415        H  0.55155566  0.01081145  0.99911516     0.09500
Cu416      Cu  0.50599601  0.94209912  0.01656281     0.44200
Cu417      Cu  0.55822248  0.99084504  0.01751313     0.42000
Cu418      Cu  0.54238341  0.94241961  0.03100173     0.43900
N419        N  0.49784115  0.91629890  0.02439594    -0.34200
N420        N  0.51170777  0.91591848  0.02967260    -0.28400
C421        C  0.50237072  0.89654418  0.03349186    -0.04500
C422        C  0.48155624  0.88425335  0.03045184     0.07700
C423        C  0.47925217  0.89733022  0.02471415     0.01500
H424        H  0.51018014  0.89175034  0.03807914     0.09100
H425        H  0.46536065  0.89318082  0.02085180     0.08200
N426        N  0.57083727  0.97179398  0.03199782    -0.35600
N427        N  0.57636165  0.98950626  0.02760225    -0.27800
C428        C  0.59553728  0.00546273  0.03046921    -0.03000
C429        C  0.60237256  0.99717401  0.03681316     0.05600
C430        C  0.58636593  0.97586891  0.03757036     0.03700
H431        H  0.60414750  0.02168204  0.02796554     0.08800
H432        H  0.58586586  0.96414249  0.04194568     0.07600
N433        N  0.46028015  0.47107493  0.00844490    -0.26800
N434        N  0.46114707  0.48996724  0.00862972    -0.34600
C435        C  0.47133048  0.50126980  0.00175637     0.01600
C436        C  0.47713031  0.48899797  0.99692155     0.07600
C437        C  0.46989312  0.46992140  0.00135431    -0.05500
H438        H  0.47344681  0.51691842  0.00022303     0.08300
H439        H  0.47094821  0.45598341  0.99945515     0.09500
Cu440      Cu  0.44587162  0.49901763  0.01737419     0.44200
Cu441      Cu  0.44414723  0.44706961  0.01753170     0.42000
Cu442      Cu  0.40510005  0.45603712  0.02899282     0.43900
N443        N  0.42401349  0.50259701  0.02465389    -0.34200
N444        N  0.40799341  0.48627779  0.02864470    -0.28400
C445        C  0.39546308  0.49308443  0.03223158    -0.04500
C446        C  0.40421186  0.51481927  0.03043241     0.07700
C447        C  0.42230673  0.52029994  0.02563544     0.01500
H448        H  0.38112105  0.48298632  0.03586846     0.09100
H449        H  0.43306463  0.53581673  0.02282583     0.08200
N450        N  0.40801526  0.42884544  0.03020648    -0.35600
N451        N  0.42283365  0.42575473  0.02656925    -0.27800
C452        C  0.42058029  0.40693791  0.02939532    -0.03000
C453        C  0.40330227  0.39779751  0.03492909     0.05600
C454        C  0.39579984  0.41210508  0.03523785     0.03700
H455        H  0.43035753  0.40016579  0.02740962     0.08800
H456        H  0.38259032  0.41067635  0.03899485     0.07600
N457        N  0.00550470  0.54548212  0.00464193    -0.26800
N458        N  0.02190904  0.54203846  0.00521455    -0.34600
C459        C  0.02180062  0.53037409  0.99863024     0.01600
C460        C  0.00458123  0.52621237  0.99358096     0.07600
C461        C  0.99451888  0.53600480  0.99757790    -0.05500
H462        H  0.03395669  0.52599398  0.99746528     0.08300
H463        H  0.98064518  0.53672139  0.99540610     0.09500
Cu464      Cu  0.04582142  0.55520173  0.01414027     0.44200
Cu465      Cu  0.00009975  0.56422804  0.01332682     0.42000
Cu466      Cu  0.04790341  0.59771986  0.02607228     0.43900
N467        N  0.07145504  0.57437566  0.02184305    -0.34200
N468        N  0.07269319  0.59082205  0.02605720    -0.28400
C469        C  0.09171454  0.60108385  0.03007059    -0.04500
C470        C  0.10292021  0.59048701  0.02828271     0.07700
C471        C  0.08957478  0.57361842  0.02305362     0.01500
H472        H  0.09700587  0.61525118  0.03395157     0.09100
H473        H  0.09296709  0.56200056  0.02014870     0.08200
N474        N  0.01938878  0.59836532  0.02683499    -0.35600
N475        N  0.00150626  0.58549088  0.02266821    -0.27800
C476        C  0.98561675  0.58875975  0.02550197    -0.03000
C477        C  0.99412504  0.60465197  0.03162406     0.05600
C478        C  0.01552357  0.61037462  0.03224367     0.03700
H479        H  0.96917968  0.58030039  0.02325482     0.08800
H480        H  0.02729496  0.62186371  0.03656739     0.07600
N481        N  0.66120120  0.37238246  0.89642687    -0.26800
N482        N  0.64170655  0.35609410  0.89809925    -0.34600
C483        C  0.62815750  0.36372548  0.89915840     0.01600
C484        C  0.63968906  0.38590648  0.89807405     0.07600
C485        C  0.66059090  0.39084281  0.89635235    -0.05500
H486        H  0.61113154  0.35379660  0.90051365     0.08300
H487        H  0.67436762  0.40664864  0.89513482     0.09500
Cu488      Cu  0.63438091  0.32419725  0.89836087     0.44200
Cu489      Cu  0.68748542  0.36840078  0.89424463     0.42000
Cu490      Cu  0.67556908  0.31337066  0.89056813     0.43900
N491        N  0.62980482  0.29351132  0.89659917    -0.34200
N492        N  0.64424484  0.28949982  0.89319966    -0.28400
C493        C  0.63589324  0.26797671  0.89270766    -0.04500
C494        C  0.61538954  0.25810991  0.89607597     0.07700
C495        C  0.61208206  0.27469399  0.89852963     0.01500
H496        H  0.64454575  0.26016528  0.89051358     0.09100
H497        H  0.59789803  0.27321126  0.90155243     0.08200
N498        N  0.70646512  0.33988243  0.89081052    -0.35600
N499        N  0.71079530  0.35982639  0.89233168    -0.27800
C500        C  0.73225873  0.37280387  0.89296136    -0.03000
C501        C  0.74188387  0.36043524  0.89178386     0.05600
C502        C  0.72506306  0.33965670  0.89040856     0.03700
H503        H  0.74016883  0.38982411  0.89448121     0.08800
H504        H  0.72612369  0.32522408  0.88961170     0.07600
N505        N  0.98179467  0.44851370  0.92805002    -0.26800
N506        N  0.96534107  0.45175124  0.92717783    -0.34600
C507        C  0.96413525  0.46247376  0.93385539     0.01600
C508        C  0.98054441  0.46615464  0.93928327     0.07600
C509        C  0.99152258  0.45715865  0.93539635    -0.05500
H510        H  0.95143850  0.46616675  0.93488278     0.08300
H511        H  0.00494345  0.45609576  0.93788342     0.09500
Cu512      Cu  0.94248019  0.43779675  0.91794994     0.44200
Cu513      Cu  0.98801557  0.43007329  0.91951113     0.42000
Cu514      Cu  0.93929676  0.39130220  0.90824183     0.43900
N515        N  0.91638542  0.41601718  0.91102399    -0.34200
N516        N  0.91446406  0.39814238  0.90780062    -0.28400
C517        C  0.89500447  0.38683069  0.90414144    -0.04500
C518        C  0.88431249  0.39827458  0.90513426     0.07700
C519        C  0.89835389  0.41665783  0.90952394     0.01500
H520        H  0.88918426  0.37154948  0.90095846     0.09100
H521        H  0.89561939  0.42944581  0.91161752     0.08200
N522        N  0.96892708  0.39299272  0.90714992    -0.35600
N523        N  0.98702853  0.40792317  0.91068181    -0.27800
C524        C  0.00351025  0.40579526  0.90772935    -0.03000
C525        C  0.99523338  0.38849070  0.90222046     0.05600
C526        C  0.97330451  0.38076532  0.90205117     0.03700
H527        H  0.02020719  0.41593816  0.90951660     0.08800
H528        H  0.96145188  0.36769591  0.89823826     0.07600
N529        N  0.54808464  0.53877304  0.92992977    -0.26800
N530        N  0.54541427  0.51912136  0.92948598    -0.34600
C531        C  0.53603197  0.50825560  0.93652214     0.01600
C532        C  0.53259814  0.52154291  0.94176655     0.07600
C533        C  0.54036346  0.54081139  0.93738271    -0.05500
H534        H  0.53289327  0.49213135  0.93785815     0.08300
H535        H  0.54105016  0.55544747  0.93956309     0.09500
Cu536      Cu  0.55739083  0.50804781  0.92019548     0.44200
Cu537      Cu  0.56415982  0.56220484  0.92055830     0.42000
Cu538      Cu  0.59765548  0.54793032  0.90761200     0.43900
N539        N  0.57634983  0.50148787  0.91242735    -0.34200
N540        N  0.59229410  0.51668534  0.90800442    -0.28400
C541        C  0.60302462  0.50815744  0.90417155    -0.04500
C542        C  0.59318814  0.48648377  0.90628727     0.07700
C543        C  0.57631486  0.48282629  0.91151641     0.01500
H544        H  0.61700639  0.51709838  0.90021054     0.09100
H545        H  0.56533380  0.46794973  0.91469430     0.08200
N546        N  0.59688154  0.57635588  0.90649930    -0.35600
N547        N  0.58414500  0.58145332  0.91070670    -0.27800
C548        C  0.58732492  0.60056454  0.90777641    -0.03000
C549        C  0.60301327  0.60778183  0.90156442     0.05600
C550        C  0.60862425  0.59202846  0.90098153     0.03700
H551        H  0.57931198  0.60886225  0.91014422     0.08800
H552        H  0.62028503  0.59180139  0.89674798     0.07600
N553        N  0.46336064  0.01355049  0.93165143    -0.26800
N554        N  0.47912466  0.03364156  0.93286574    -0.34600
C555        C  0.48928906  0.03492675  0.94003388     0.01600
C556        C  0.47955499  0.01475726  0.94367259     0.07600
C557        C  0.46302917  0.00148919  0.93820858    -0.05500
H558        H  0.50294405  0.04960455  0.94238601     0.08300
H559        H  0.45191498  0.98433702  0.93887175     0.09500
Cu560      Cu  0.48777133  0.05894349  0.92477642     0.44200
Cu561      Cu  0.44428106  0.00453417  0.92074107     0.42000
Cu562      Cu  0.46556521  0.04814530  0.90469665     0.43900
N563        N  0.49909102  0.08200136  0.91556493    -0.34200
N564        N  0.49186156  0.07787345  0.90782482    -0.28400
C565        C  0.50340477  0.09577457  0.90316727    -0.04500
C566        C  0.51835381  0.11186367  0.90833482     0.07700
C567        C  0.51509028  0.10258971  0.91613669     0.01500
H568        H  0.50065480  0.09716698  0.89661823     0.09100
H569        H  0.52384784  0.11016488  0.92180520     0.08200
N570        N  0.43712876  0.01866684  0.90366782    -0.35600
N571        N  0.42932566  0.00269698  0.90917973    -0.27800
C572        C  0.40996623  0.98680377  0.90639903    -0.03000
C573        C  0.40540668  0.99337165  0.89890392     0.05600
C574        C  0.42293812  0.01358019  0.89742177     0.03700
H575        H  0.39942639  0.97219876  0.90982098     0.08800
H576        H  0.42496789  0.02420823  0.89227616     0.07600
N577        N  0.05004538  0.01645617  0.56321298    -0.26800
N578        N  0.05314415  0.03626974  0.56353518    -0.34600
C579        C  0.07443897  0.05051555  0.56362246     0.01600
C580        C  0.08527801  0.03915683  0.56321839     0.07600
C581        C  0.06934741  0.01760385  0.56293467    -0.05500
H582        H  0.08149113  0.06787542  0.56390553     0.08300
H583        H  0.07159102  0.00376789  0.56274748     0.09500
Cu584      Cu  0.02840247  0.04322298  0.56368200     0.44200
Cu585      Cu  0.01962829  0.98889180  0.56345397     0.42000
Cu586      Cu  0.97398968  0.99769698  0.56240873     0.43900
N587        N  0.00118620  0.04627363  0.56373105    -0.34200
N588        N  0.98126872  0.02968553  0.56333798    -0.28400
C589        C  0.96738497  0.03708483  0.56384322    -0.04500
C590        C  0.97915343  0.05938638  0.56454251     0.07700
C591        C  0.00052168  0.06464112  0.56442952     0.01500
H592        H  0.95001858  0.02693481  0.56376164     0.09100
H593        H  0.01458191  0.08059294  0.56498140     0.08200
N594        N  0.97106050  0.96725040  0.56237682    -0.35600
N595        N  0.98762697  0.96409797  0.56307786    -0.27800
C596        C  0.98029118  0.94271791  0.56318118    -0.03000
C597        C  0.95807669  0.93186313  0.56240587     0.05600
C598        C  0.95277404  0.94792561  0.56190379     0.03700
H599        H  0.99045414  0.93563659  0.56367730     0.08800
H600        H  0.93678810  0.94575504  0.56135056     0.07600
N601        N  0.87075605  0.20163983  0.59446900    -0.26800
N602        N  0.86858491  0.18217164  0.59446447    -0.34600
C603        C  0.85737462  0.17131001  0.60125263     0.01600
C604        C  0.85225818  0.18447173  0.60584751     0.07600
C605        C  0.86094841  0.20361850  0.60134994    -0.05500
H606        H  0.85418005  0.15534077  0.60291417     0.08300
H607        H  0.86088682  0.21817598  0.60310816     0.09500
Cu608      Cu  0.88381590  0.17178082  0.58623508     0.44200
Cu609      Cu  0.88907438  0.22513704  0.58551154     0.42000
Cu610      Cu  0.92859289  0.21424101  0.57573351     0.43900
N611        N  0.90604954  0.16703538  0.57971106    -0.34200
N612        N  0.92341462  0.18313052  0.57623805    -0.28400
C613        C  0.93556978  0.17551130  0.57297180    -0.04500
C614        C  0.92523507  0.15349356  0.57441548     0.07700
C615        C  0.90654447  0.14864840  0.57869497     0.01500
H616        H  0.95067751  0.18526174  0.56972067     0.09100
H617        H  0.89447123  0.13304572  0.58107854     0.08200
N618        N  0.92690142  0.24183370  0.57364195    -0.35600
N619        N  0.91186152  0.24546939  0.57669014    -0.27800
C620        C  0.91472275  0.26409091  0.57341397    -0.03000
C621        C  0.93259053  0.27258419  0.56819193     0.05600
C622        C  0.93986045  0.25806900  0.56851881     0.03700
H623        H  0.90485938  0.27114538  0.57486717     0.08800
H624        H  0.95336099  0.25898003  0.56513337     0.07600
N625        N  0.31856562  0.11401616  0.59813174    -0.26800
N626        N  0.30300894  0.11868123  0.59743298    -0.34600
C627        C  0.30169379  0.12811497  0.60448278     0.01600
C628        C  0.31720547  0.12969252  0.60995741     0.07600
C629        C  0.32771059  0.12063591  0.60573321    -0.05500
H630        H  0.29016742  0.13339440  0.60551268     0.08300
H631        H  0.34087526  0.11884776  0.60803208     0.09500
Cu632      Cu  0.28334696  0.11187403  0.58719165     0.44200
Cu633      Cu  0.32576253  0.09843505  0.58856786     0.42000
Cu634      Cu  0.28951120  0.08379360  0.57031419     0.43900
N635        N  0.26233176  0.10081876  0.57726587    -0.34200
N636        N  0.26396138  0.08951896  0.57107679    -0.28400
C637        C  0.24638952  0.08210340  0.56619355    -0.04500
C638        C  0.23327143  0.08935058  0.56947336     0.07700
C639        C  0.24394197  0.10123181  0.57646383     0.01500
H640        H  0.24306687  0.07161772  0.56085029     0.09100
H641        H  0.23811176  0.10839948  0.58096255     0.08200
N642        N  0.31584814  0.07928329  0.57105342    -0.35600
N643        N  0.32857521  0.08369513  0.57762523    -0.27800
C644        C  0.34345215  0.07800023  0.57583188    -0.03000
C645        C  0.34005774  0.07000852  0.56773005     0.05600
C646        C  0.32247101  0.07111194  0.56492781     0.03700
H647        H  0.35609412  0.07999871  0.58003648     0.08800
H648        H  0.31485271  0.06614580  0.55887512     0.07600
N649        N  0.80434892  0.69215481  0.59598605    -0.26800
N650        N  0.82492838  0.70697719  0.59504303    -0.34600
C651        C  0.83588168  0.70755205  0.60192680     0.01600
C652        C  0.82165096  0.69243784  0.60754975     0.07600
C653        C  0.80176751  0.68290385  0.60356391    -0.05500
H654        H  0.85291910  0.71863624  0.60284317     0.08300
H655        H  0.78649273  0.67042285  0.60603697     0.09500
Cu656      Cu  0.83743875  0.72781433  0.58494799     0.44200
Cu657      Cu  0.78083370  0.68606295  0.58689905     0.42000
Cu658      Cu  0.80021079  0.72545589  0.56980594     0.43900
N659        N  0.84562819  0.75153994  0.57598202    -0.34200
N660        N  0.83153414  0.75130425  0.57064027    -0.28400
C661        C  0.84081255  0.77009298  0.56640269    -0.04500
C662        C  0.86184375  0.78263118  0.56916860     0.07700
C663        C  0.86434860  0.77031123  0.57521718     0.01500
H664        H  0.83271867  0.77443618  0.56177467     0.09100
H665        H  0.87835382  0.77509608  0.57909791     0.08200
N666        N  0.77002572  0.69767815  0.57007099    -0.35600
N667        N  0.76241257  0.68374783  0.57633827    -0.27800
C668        C  0.74213402  0.66809054  0.57444031    -0.03000
C669        C  0.73703685  0.67221487  0.56656125     0.05600
C670        C  0.75511319  0.69103885  0.56399928     0.03700
H671        H  0.73206760  0.65441617  0.57839685     0.08800
H672        H  0.75721333  0.69948247  0.55816900     0.07600
N673        N  0.67348550  0.30124009  0.70836827    -0.26800
N674        N  0.69314177  0.31806571  0.70752485    -0.34600
C675        C  0.70724421  0.31105872  0.70666629     0.01600
C676        C  0.69593434  0.28876529  0.70708595     0.07600
C677        C  0.67459773  0.28306217  0.70819317    -0.05500
H678        H  0.72446086  0.32146620  0.70588012     0.08300
H679        H  0.66083611  0.26689704  0.70867929     0.09500
Cu680      Cu  0.70001046  0.34975540  0.70770445     0.44200
Cu681      Cu  0.64594373  0.30367916  0.70929862     0.42000
Cu682      Cu  0.65437593  0.35794901  0.70983718     0.43900
N683        N  0.70273149  0.37987196  0.70788244    -0.34200
N684        N  0.68610659  0.38296755  0.70845727    -0.28400
C685        C  0.69332333  0.40428778  0.70791007    -0.04500
C686        C  0.71554180  0.41504224  0.70705899     0.07700
C687        C  0.72095006  0.39907892  0.70708871     0.01500
H688        H  0.68314676  0.41140389  0.70811999     0.09100
H689        H  0.73687865  0.40117125  0.70636580     0.08200
N690        N  0.62406015  0.33017743  0.71013739    -0.35600
N691        N  0.62099306  0.31039070  0.70965199    -0.27800
C692        C  0.59970584  0.29618706  0.70910276    -0.03000
C693        C  0.58883554  0.30755328  0.70933309     0.05600
C694        C  0.60477124  0.32904491  0.71004403     0.03700
H695        H  0.59272282  0.27890551  0.70842175     0.08800
H696        H  0.60258671  0.34292113  0.71008403     0.07600
N697        N  0.34524263  0.21462790  0.67448799    -0.26800
N698        N  0.36060829  0.20968501  0.67521317    -0.34600
C699        C  0.36007872  0.19795793  0.66857413     0.01600
C700        C  0.34362782  0.19525974  0.66335708     0.07600
C701        C  0.33443761  0.20596338  0.66731132    -0.05500
H702        H  0.37136321  0.19237865  0.66753297     0.08300
H703        H  0.32133343  0.20787415  0.66502771     0.09500
Cu704      Cu  0.38370136  0.22071412  0.68451882     0.44200
Cu705      Cu  0.34092125  0.23413049  0.68313532     0.42000
Cu706      Cu  0.38410998  0.25903150  0.69867115     0.43900
N707        N  0.40898620  0.23820686  0.69266387    -0.34200
N708        N  0.40958363  0.25315891  0.69768030    -0.28400
C709        C  0.42889187  0.26346530  0.70149354    -0.04500
C710        C  0.44097543  0.25446243  0.69876511     0.07700
C711        C  0.42779188  0.23841322  0.69319455     0.01500
H712        H  0.43388573  0.27680443  0.70580000     0.09100
H713        H  0.43190952  0.22833492  0.68949995     0.08200
N714        N  0.35640880  0.26139785  0.69885438    -0.35600
N715        N  0.34108070  0.25319028  0.69311171    -0.27800
C716        C  0.32573643  0.25799837  0.69518508    -0.03000
C717        C  0.33153434  0.26934247  0.70265158     0.05600
C718        C  0.35099684  0.27114063  0.70478968     0.03700
H719        H  0.31108076  0.25292262  0.69168682     0.08800
H720        H  0.36058502  0.27901039  0.71026595     0.07600
N721        N  0.77642275  0.13352957  0.67217233    -0.26800
N722        N  0.78210861  0.15412283  0.67291471    -0.34600
C723        C  0.79143105  0.16461106  0.66580036     0.01600
C724        C  0.79186430  0.15010008  0.66023589     0.07600
C725        C  0.78227501  0.13050111  0.66448430    -0.05500
H726        H  0.79726348  0.18158691  0.66475935     0.08300
H727        H  0.77945871  0.11513802  0.66211651     0.09500
Cu728      Cu  0.77601786  0.16751660  0.68321692     0.44200
Cu729      Cu  0.76033948  0.11084132  0.68176920     0.42000
Cu730      Cu  0.74548559  0.13280504  0.69980591     0.43900
N731        N  0.76351230  0.17725488  0.69274319    -0.34200
N732        N  0.75114765  0.16413116  0.69870877    -0.28400
C733        C  0.74269686  0.17410332  0.70314325    -0.04500
C734        C  0.75035880  0.19453214  0.69981183     0.07700
C735        C  0.76358926  0.19599477  0.69326312     0.01500
H736        H  0.73124696  0.16674565  0.70819907     0.09100
H737        H  0.77144092  0.20907757  0.68882275     0.08200
N738        N  0.74170823  0.10208169  0.69938446    -0.35600
N739        N  0.74598177  0.09352345  0.69282852    -0.27800
C740        C  0.74066612  0.07305979  0.69474763    -0.03000
C741        C  0.73316016  0.06882613  0.70292218     0.05600
C742        C  0.73412961  0.08760502  0.70564057     0.03700
H743        H  0.74262328  0.06225309  0.69058156     0.08800
H744        H  0.72935478  0.09046574  0.71170741     0.07600
N745        N  0.87003338  0.65750970  0.67253925    -0.26800
N746        N  0.84976582  0.64150770  0.67292330    -0.34600
C747        C  0.83917145  0.64186406  0.66607783     0.01600
C748        C  0.85325297  0.65886197  0.66105971     0.07600
C749        C  0.87273445  0.66845358  0.66534586    -0.05500
H750        H  0.82241092  0.63033528  0.66481594     0.08300
H751        H  0.88774328  0.68236881  0.66339093     0.09500
Cu752      Cu  0.83673646  0.61864025  0.68235767     0.44200
Cu753      Cu  0.89291970  0.66345130  0.68195474     0.42000
Cu754      Cu  0.87247449  0.62239979  0.69831389     0.43900
N755        N  0.82846944  0.59456907  0.69116740    -0.34200
N756        N  0.84223332  0.59550107  0.69683270    -0.28400
C757        C  0.83350071  0.57652995  0.70090752    -0.04500
C758        C  0.81311051  0.56314601  0.69770957     0.07700
C759        C  0.81038623  0.57511938  0.69157969     0.01500
H760        H  0.84153413  0.57267814  0.70573281     0.09100
H761        H  0.79677576  0.56969514  0.68741689     0.08200
N762        N  0.90242835  0.65014448  0.69865955    -0.35600
N763        N  0.91065870  0.66483853  0.69266959    -0.27800
C764        C  0.93093601  0.67994046  0.69489635    -0.03000
C765        C  0.93532737  0.67453139  0.70268909     0.05600
C766        C  0.91684735  0.65562405  0.70484864     0.03700
H767        H  0.94155362  0.69395979  0.69119344     0.08800
H768        H  0.91418022  0.64620928  0.71045821     0.07600
N769        N  0.00045362  0.96483306  0.37832884    -0.26800
N770        N  0.02063193  0.98084608  0.37891870    -0.34600
C771        C  0.03382905  0.97264685  0.37856925     0.01600
C772        C  0.02135189  0.95044516  0.37779043     0.07600
C773        C  0.00026152  0.94600779  0.37770876    -0.05500
H774        H  0.05124767  0.98223609  0.37860502     0.08300
H775        H  0.98592053  0.93042981  0.37676203     0.09500
Cu776      Cu  0.02966118  0.01332692  0.37935410     0.44200
Cu777      Cu  0.97435159  0.96942987  0.37724810     0.42000
Cu778      Cu  0.98687478  0.02520885  0.37646544     0.43900
N779        N  0.03496613  0.04457287  0.37844021    -0.34200
N780        N  0.01932951  0.04890670  0.37722323    -0.28400
C781        C  0.02804820  0.07040837  0.37636289    -0.04500
C782        C  0.05023716  0.08010430  0.37710331     0.07700
C783        C  0.05402736  0.06320843  0.37843659     0.01500
H784        H  0.01888588  0.07832354  0.37514980     0.09100
H785        H  0.06952631  0.06428481  0.37910597     0.08200
N786        N  0.95579110  0.99870580  0.37552508    -0.35600
N787        N  0.95137997  0.97842224  0.37565081    -0.27800
C788        C  0.93010023  0.96521259  0.37450416    -0.03000
C789        C  0.92060020  0.97775213  0.37368156     0.05600
C790        C  0.93732923  0.99890522  0.37438452     0.03700
H791        H  0.92219893  0.94777196  0.37426194     0.08800
H792        H  0.93626705  0.01339775  0.37391027     0.07600
N793        N  0.11642656  0.80360874  0.33990446    -0.26800
N794        N  0.11923912  0.82333574  0.34026254    -0.34600
C795        C  0.12903802  0.83412044  0.33324738     0.01600
C796        C  0.13261250  0.82069205  0.32812906     0.07600
C797        C  0.12445500  0.80144892  0.33255136    -0.05500
H798        H  0.13255076  0.85034639  0.33185992     0.08300
H799        H  0.12386175  0.78677433  0.33048436     0.09500
Cu800      Cu  0.10737553  0.83471193  0.34953249     0.44200
Cu801      Cu  0.10013027  0.78007730  0.34924011     0.42000
Cu802      Cu  0.06758425  0.79422500  0.36238094     0.43900
N803        N  0.08835714  0.84071460  0.35754428    -0.34200
N804        N  0.07280356  0.82532015  0.36204990    -0.28400
C805        C  0.06189948  0.83341088  0.36603510    -0.04500
C806        C  0.07113678  0.85499932  0.36393701     0.07700
C807        C  0.08792075  0.85911715  0.35856386     0.01500
H808        H  0.04818722  0.82419226  0.37009108     0.09100
H809        H  0.09852218  0.87412882  0.35538737     0.08200
N810        N  0.06745371  0.76540232  0.36327599    -0.35600
N811        N  0.08000469  0.76027070  0.35896533    -0.27800
C812        C  0.07647551  0.74089114  0.36171649    -0.03000
C813        C  0.06072709  0.73356680  0.36791014     0.05600
C814        C  0.05542476  0.74949708  0.36867045     0.03700
H815        H  0.08428826  0.73249880  0.35924348     0.08800
H816        H  0.04384812  0.74970465  0.37295721     0.07600
N817        N  0.20368844  0.32359072  0.34053198    -0.26800
N818        N  0.18458900  0.30570597  0.34063323    -0.34600
C819        C  0.17377644  0.30455687  0.33365709     0.01600
C820        C  0.18650755  0.32248619  0.32883234     0.07600
C821        C  0.20541521  0.33431447  0.33337592    -0.05500
H822        H  0.15801044  0.29115339  0.33211521     0.08300
H823        H  0.21955922  0.34926399  0.33152121     0.09500
Cu824      Cu  0.17391377  0.28166019  0.34951052     0.44200
Cu825      Cu  0.22681307  0.33119484  0.34995059     0.42000
Cu826      Cu  0.21362575  0.28319668  0.36265420     0.43900
N827        N  0.16755398  0.25639793  0.35738818    -0.34200
N828        N  0.18264528  0.25627864  0.36203089    -0.28400
C829        C  0.17400580  0.23730397  0.36614569    -0.04500
C830        C  0.15237129  0.22508280  0.36402256     0.07700
C831        C  0.14888866  0.23774606  0.35846098     0.01500
H832        H  0.18270586  0.23291389  0.37046647     0.09100
H833        H  0.13397817  0.23359719  0.35531400     0.08200
N834        N  0.24174656  0.31318559  0.36385830    -0.35600
N835        N  0.24631904  0.33094285  0.35968329    -0.27800
C836        C  0.26522679  0.34739539  0.36255845    -0.03000
C837        C  0.27295864  0.33944901  0.36872179     0.05600
C838        C  0.25764967  0.31776756  0.36932885     0.03700
H839        H  0.27300533  0.36376865  0.36020857     0.08800
H840        H  0.25785632  0.30612550  0.37355714     0.07600
N841        N  0.67143906  0.87358859  0.34119485    -0.26800
N842        N  0.68870300  0.87146676  0.34134957    -0.34600
C843        C  0.68825872  0.85941602  0.33484529     0.01600
C844        C  0.66995849  0.85361998  0.33022226     0.07600
C845        C  0.65955876  0.86285007  0.33443171    -0.05500
H846        H  0.70104564  0.85614460  0.33335707     0.08300
H847        H  0.64487848  0.86240894  0.33256414     0.09500
Cu848      Cu  0.71458516  0.88768211  0.34926974     0.44200
Cu849      Cu  0.66666709  0.89283451  0.34998903     0.42000
Cu850      Cu  0.71804654  0.93256329  0.35964748     0.43900
N851        N  0.74216682  0.90998404  0.35536598    -0.34200
N852        N  0.74385267  0.92738662  0.35893663    -0.28400
C853        C  0.76379267  0.93933216  0.36211129    -0.04500
C854        C  0.77512510  0.92881445  0.36045649     0.07700
C855        C  0.76092226  0.91025651  0.35616716     0.01500
H856        H  0.76944730  0.95433521  0.36548297     0.09100
H857        H  0.76401391  0.89797854  0.35372587     0.08200
N858        N  0.68886891  0.93088932  0.36192265    -0.35600
N859        N  0.66990457  0.91584786  0.35901328    -0.27800
C860        C  0.65443594  0.91866468  0.36263351    -0.03000
C861        C  0.66432128  0.93650741  0.36789734     0.05600
C862        C  0.68607364  0.94380515  0.36723645     0.03700
H863        H  0.63734936  0.90875460  0.36141398     0.08800
H864        H  0.69897720  0.95720634  0.37058166     0.07600
N865        N  0.38216526  0.69647650  0.22477854    -0.26800
N866        N  0.37942622  0.67680576  0.22521289    -0.34600
C867        C  0.39893250  0.67837251  0.22522795     0.01600
C868        C  0.41457771  0.70004921  0.22491005     0.07600
C869        C  0.40336524  0.71101899  0.22463795    -0.05500
H870        H  0.40151841  0.66480697  0.22580627     0.08300
H871        H  0.41009132  0.72834374  0.22449487     0.09500
Cu872      Cu  0.34935756  0.64897816  0.22662332     0.44200
Cu873      Cu  0.35746747  0.70342611  0.22483179     0.42000
Cu874      Cu  0.30438589  0.65918217  0.22766126     0.43900
N875        N  0.31733470  0.62503311  0.22855072    -0.34200
N876        N  0.30119685  0.62895926  0.22868024    -0.28400
C877        C  0.28264814  0.61042571  0.23001854    -0.04500
C878        C  0.28722865  0.59400678  0.23087353     0.07700
C879        C  0.30938527  0.60378291  0.22992801     0.01500
H880        H  0.26703464  0.60917047  0.23055453     0.09100
H881        H  0.31900751  0.59606885  0.23022453     0.08200
N882        N  0.31114708  0.69080380  0.22706725    -0.35600
N883        N  0.33082700  0.70721225  0.22583224    -0.27800
C884        C  0.33028298  0.72569449  0.22590049    -0.03000
C885        C  0.30922926  0.72063628  0.22732336     0.05600
C886        C  0.29752100  0.69836601  0.22804151     0.03700
H887        H  0.34429262  0.74164256  0.22523955     0.08800
H888        H  0.28044425  0.68838623  0.22928970     0.07600
N889        N  0.21226060  0.86882637  0.26250442    -0.26800
N890        N  0.21036219  0.84947632  0.26249814    -0.34600
C891        C  0.19898961  0.83841838  0.26922769     0.01600
C892        C  0.19348097  0.85134210  0.27378390     0.07600
C893        C  0.20213241  0.87054952  0.26933216    -0.05500
H894        H  0.19577834  0.82241904  0.27085257     0.08300
H895        H  0.20164556  0.88491336  0.27104256     0.09500
Cu896      Cu  0.22528383  0.83918794  0.25408702     0.44200
Cu897      Cu  0.23005133  0.89225198  0.25345953     0.42000
Cu898      Cu  0.26600468  0.87953045  0.24146117     0.43900
N899        N  0.24498569  0.83317901  0.24644835    -0.34200
N900        N  0.26076921  0.84843201  0.24197633    -0.28400
C901        C  0.27128481  0.83997082  0.23794307    -0.04500
C902        C  0.26152331  0.81828176  0.23997164     0.07700
C903        C  0.24489981  0.81453029  0.24537033     0.01500
H904        H  0.28489552  0.84892688  0.23381287     0.09100
H905        H  0.23379045  0.79947827  0.24841331     0.08200
N906        N  0.26477420  0.90758951  0.24018222    -0.35600
N907        N  0.25118357  0.91201552  0.24409886    -0.27800
C908        C  0.25401082  0.93091598  0.24115107    -0.03000
C909        C  0.27031975  0.93870653  0.23521489     0.05600
C910        C  0.27673217  0.92354130  0.23479699     0.03700
H911        H  0.24513947  0.93856493  0.24326701     0.08800
H912        H  0.28891326  0.92378689  0.23072783     0.07600
N913        N  0.64508644  0.77684512  0.26406621    -0.26800
N914        N  0.63055837  0.78288130  0.26313961    -0.34600
C915        C  0.62908913  0.79205624  0.27025002     0.01600
C916        C  0.64336346  0.79198989  0.27600088     0.07600
C917        C  0.65330458  0.78223347  0.27186538    -0.05500
H918        H  0.61823786  0.79822616  0.27115985     0.08300
H919        H  0.66548145  0.77914410  0.27435271     0.09500
Cu920      Cu  0.61200453  0.77786409  0.25255105     0.44200
Cu921      Cu  0.65270344  0.76143098  0.25454043     0.42000
Cu922      Cu  0.61875917  0.74915319  0.23598175     0.43900
N923        N  0.59130691  0.76652936  0.24240333    -0.34200
N924        N  0.59327295  0.75486444  0.23644219    -0.28400
C925        C  0.57585889  0.74679117  0.23146521    -0.04500
C926        C  0.56239542  0.75395958  0.23438839     0.07700
C927        C  0.57274012  0.76654839  0.24130314     0.01500
H928        H  0.57283367  0.73582548  0.22631268     0.09100
H929        H  0.56647015  0.77376576  0.24558386     0.08200
N930        N  0.64503167  0.74471900  0.23671474    -0.35600
N931        N  0.65702423  0.74818727  0.24344328    -0.27800
C932        C  0.67212257  0.74278754  0.24164562    -0.03000
C933        C  0.66960822  0.73601093  0.23337768     0.05600
C934        C  0.65233184  0.73751102  0.23048429     0.03700
H935        H  0.68428295  0.74412005  0.24596839     0.08800
H936        H  0.64531416  0.73336160  0.22430914     0.07600
N937        N  0.13094542  0.34707192  0.26370939    -0.26800
N938        N  0.15006747  0.36488403  0.26379027    -0.34600
C939        C  0.16101865  0.36508024  0.27056925     0.01600
C940        C  0.14833451  0.34658468  0.27510200     0.07600
C941        C  0.12928585  0.33540095  0.27057947    -0.05500
H942        H  0.17683304  0.37826466  0.27219751     0.08300
H943        H  0.11514748  0.32024588  0.27225353     0.09500
Cu944      Cu  0.16058690  0.39006963  0.25552551     0.44200
Cu945      Cu  0.10836593  0.34095868  0.25426778     0.42000
Cu946      Cu  0.12421661  0.38942551  0.24105696     0.43900
N947        N  0.16784282  0.41657728  0.24834784    -0.34200
N948        N  0.15391580  0.41683625  0.24307168    -0.28400
C949        C  0.16271951  0.43659154  0.23959897    -0.04500
C950        C  0.18325571  0.44917381  0.24285033     0.07700
C951        C  0.18595810  0.43596459  0.24836615     0.01500
H952        H  0.15490575  0.44131297  0.23498566     0.09100
H953        H  0.19987982  0.44019224  0.25222358     0.08200
N954        N  0.09665280  0.35953617  0.23947517    -0.35600
N955        N  0.09095827  0.34188646  0.24392672    -0.27800
C956        C  0.07249434  0.32557106  0.24072876    -0.03000
C957        C  0.06632981  0.33351577  0.23405127     0.05600
C958        C  0.08197563  0.35502309  0.23347596     0.03700
H959        H  0.06399454  0.30929207  0.24317899     0.08800
H960        H  0.08282661  0.36661147  0.22894975     0.07600
N961        N  0.65875270  0.28985949  0.39402021    -0.26800
N962        N  0.63883117  0.28620221  0.39478294    -0.34600
C963        C  0.62530475  0.26491036  0.39588177     0.01600
C964        C  0.63724347  0.25464883  0.39574828     0.07600
C965        C  0.65836286  0.27092820  0.39453434    -0.05500
H966        H  0.60807707  0.25751660  0.39678232     0.08300
H967        H  0.67251233  0.26926480  0.39427041     0.09500
Cu968      Cu  0.63059773  0.31006893  0.39454925     0.44200
Cu969      Cu  0.68588917  0.32044385  0.39289496     0.42000
Cu970      Cu  0.67475538  0.36437529  0.39273438     0.43900
N971        N  0.62672031  0.33682727  0.39470285    -0.34200
N972        N  0.64308005  0.35685342  0.39422567    -0.28400
C973        C  0.63564461  0.37063146  0.39506367    -0.04500
C974        C  0.61350073  0.35867054  0.39603595     0.07700
C975        C  0.60836124  0.33729336  0.39574408     0.01500
H976        H  0.64566875  0.38804975  0.39502197     0.09100
H977        H  0.59256104  0.32313396  0.39649249     0.08200
N978        N  0.70549524  0.36874360  0.39225786    -0.35600
N979        N  0.70979981  0.35285887  0.39253927    -0.27800
C980        C  0.73131769  0.36141706  0.39304401    -0.03000
C981        C  0.74090386  0.38372552  0.39303360     0.05600
C982        C  0.72405324  0.38775269  0.39248055     0.03700
H983        H  0.73928932  0.35208517  0.39363624     0.08800
H984        H  0.72507784  0.40333629  0.39266991     0.07600
N985        N  0.98239365  0.53951078  0.43001355    -0.26800
N986        N  0.96506412  0.52001023  0.42979250    -0.34600
C987        C  0.96475872  0.50873046  0.43651639     0.01600
C988        C  0.98272978  0.52157594  0.44129261     0.07600
C989        C  0.99365687  0.54104018  0.43698123    -0.05500
H990        H  0.95198385  0.49248408  0.43790233     0.08300
H991        H  0.00837731  0.55538382  0.43886872     0.09500
Cu992      Cu  0.94103324  0.50945234  0.42096155     0.44200
Cu993      Cu  0.98845502  0.56308483  0.42092468     0.42000
Cu994      Cu  0.94106094  0.54875106  0.40770703     0.43900
N995        N  0.91586184  0.50261471  0.41302469    -0.34200
N996        N  0.91527881  0.51742466  0.40833222    -0.28400
C997        C  0.89628154  0.50840310  0.40428935    -0.04500
C998        C  0.88452414  0.48683177  0.40653344     0.07700
C999        C  0.89743779  0.48372024  0.41206121     0.01500
H1000       H  0.89149964  0.51686494  0.40000313     0.09100
H1001       H  0.89354362  0.46897388  0.41531511     0.08200
N1002       N  0.97010356  0.57761256  0.40695604    -0.35600
N1003       N  0.98767058  0.58269614  0.41132713    -0.27800
C1004       C  0.00381294  0.60194729  0.40857930    -0.03000
C1005       C  0.99581469  0.60928419  0.40229822     0.05600
C1006       C  0.97444512  0.59347698  0.40148852     0.03700
H1007       H  0.02007291  0.61006486  0.41101104     0.08800
H1008       H  0.96296661  0.59315995  0.39704685     0.07600
N1009       N  0.47109959  0.46440652  0.42861318    -0.26800
N1010       N  0.49065910  0.46688581  0.42845452    -0.34600
C1011       C  0.50171535  0.47818728  0.43520705     0.01600
C1012       C  0.48862553  0.48309297  0.43994761     0.07600
C1013       C  0.46929993  0.47413021  0.43556756    -0.05500
H1014       H  0.51784798  0.48173306  0.43671764     0.08300
H1015       H  0.45479194  0.47410399  0.43742936     0.09500
Cu1016     Cu  0.50127112  0.45261819  0.41984267     0.44200
Cu1017     Cu  0.44731102  0.44621175  0.41961619     0.42000
Cu1018     Cu  0.46034411  0.41107861  0.40747109     0.43900
N1019       N  0.50687129  0.43228572  0.41237377    -0.34200
N1020       N  0.49142858  0.41624688  0.40805656    -0.28400
C1021       C  0.49932337  0.40458857  0.40452733    -0.04500
C1022       C  0.52081289  0.41382127  0.40672114     0.07700
C1023       C  0.52508650  0.43141189  0.41166568     0.01500
H1024       H  0.49000392  0.39028481  0.40075826     0.09100
H1025       H  0.54003412  0.44219708  0.41482498     0.08200
N1026       N  0.43146013  0.41088606  0.40650876    -0.35600
N1027       N  0.42686043  0.42436081  0.41043540    -0.27800
C1028       C  0.40752740  0.42077550  0.40767410    -0.03000
C1029       C  0.39959896  0.40403336  0.40187772     0.05600
C1030       C  0.41517313  0.39817671  0.40136344     0.03700
H1031       H  0.39966278  0.42941311  0.40982445     0.08800
H1032       H  0.41497694  0.38591308  0.39734421     0.07600
N1033       N  0.54662609  0.01013782  0.43084991    -0.26800
N1034       N  0.54369984  0.02695610  0.43067375    -0.34600
C1035       C  0.53218383  0.02640606  0.43738956     0.01600
C1036       C  0.52761203  0.00848889  0.44211168     0.07600
C1037       C  0.53697575  0.99846574  0.43777417    -0.05500
H1038       H  0.52820506  0.03872518  0.43887142     0.08300
H1039       H  0.53728185  0.98411829  0.43962981     0.09500
Cu1040     Cu  0.55745154  0.05196552  0.42211123     0.44200
Cu1041     Cu  0.56518112  0.00506985  0.42193883     0.42000
Cu1042     Cu  0.59967796  0.05387884  0.40998952     0.43900
N1043       N  0.57710065  0.07801620  0.41456040    -0.34200
N1044       N  0.59344846  0.07911166  0.41033933    -0.28400
C1045       C  0.60396805  0.09823419  0.40637976    -0.04500
C1046       C  0.59362649  0.10967144  0.40817063     0.07700
C1047       C  0.57664425  0.09636119  0.41337208     0.01500
H1048       H  0.61801941  0.10334887  0.40246144     0.09100
H1049       H  0.56509815  0.09989617  0.41623532     0.08200
N1050       N  0.59998666  0.02526324  0.40871710    -0.35600
N1051       N  0.58693216  0.00706933  0.41268869    -0.27800
C1052       C  0.59025166  0.99133488  0.40968330    -0.03000
C1053       C  0.60625194  0.00020786  0.40360512     0.05600
C1054       C  0.61202095  0.02171396  0.40321108     0.03700
H1055       H  0.58158537  0.97468225  0.41172514     0.08800
H1056       H  0.62357800  0.03381786  0.39899765     0.07600
N1057       N  0.35875670  0.70841255  0.54343659    -0.26800
N1058       N  0.33887655  0.70501683  0.54335158    -0.34600
C1059       C  0.33965317  0.72415901  0.54299103     0.01600
C1060       C  0.36106823  0.74031517  0.54272939     0.07600
C1061       C  0.37272661  0.72977200  0.54299203    -0.05500
H1062       H  0.32567065  0.72610089  0.54271219     0.08300
H1063       H  0.39008658  0.73706602  0.54291037     0.09500
Cu1064     Cu  0.31183228  0.67443593  0.54325128     0.44200
Cu1065     Cu  0.36603232  0.68392604  0.54433182     0.42000
Cu1066     Cu  0.32095351  0.62896431  0.54484147     0.43900
N1067       N  0.28751321  0.64239546  0.54282854    -0.34200
N1068       N  0.29056731  0.62575508  0.54361487    -0.28400
C1069       C  0.27135294  0.60736521  0.54304349    -0.04500
C1070       C  0.25559424  0.61278673  0.54174003     0.07700
C1071       C  0.26643177  0.63509177  0.54163200     0.01500
H1072       H  0.26912114  0.59127844  0.54332886     0.09100
H1073       H  0.25956052  0.64534035  0.54072424     0.08200
N1074       N  0.35315445  0.63694004  0.54541523    -0.35600
N1075       N  0.36954646  0.65702970  0.54541392    -0.27800
C1076       C  0.38812388  0.65673374  0.54578921    -0.03000
C1077       C  0.38322014  0.63542906  0.54593087     0.05600
C1078       C  0.36091777  0.62332699  0.54566514     0.03700
H1079       H  0.40402195  0.67097287  0.54564964     0.08800
H1080       H  0.35103679  0.60589648  0.54556198     0.07600
N1081       N  0.44202208  0.97697295  0.50670752    -0.26800
N1082       N  0.44762165  0.96208114  0.50748277    -0.34600
C1083       C  0.45833857  0.96195077  0.50061656     0.01600
C1084       C  0.45974868  0.97755413  0.49519324     0.07600
C1085       C  0.44924123  0.98683208  0.49925294    -0.05500
H1086       H  0.46453306  0.95112538  0.49965805     0.08300
H1087       H  0.44695868  0.99972069  0.49695433     0.09500
Cu1088     Cu  0.43983220  0.94154699  0.51754392     0.44200
Cu1089     Cu  0.42511921  0.98295785  0.51607860     0.42000
Cu1090     Cu  0.41011154  0.94714040  0.53428361     0.43900
N1091       N  0.42552831  0.91881388  0.52685172    -0.34200
N1092       N  0.41356065  0.92019373  0.53283256    -0.28400
C1093       C  0.40408264  0.90156752  0.53717249    -0.04500
C1094       C  0.41069864  0.88803747  0.53378839     0.07700
C1095       C  0.42433993  0.89952571  0.52728756     0.01500
H1096       H  0.39291687  0.89800270  0.54229191     0.09100
H1097       H  0.43187980  0.89385371  0.52289465     0.08200
N1098       N  0.40783123  0.97493493  0.53386080    -0.35600
N1099       N  0.41196399  0.98724452  0.52716663    -0.27800
C1100       C  0.40780356  0.00319179  0.52900209    -0.03000
C1101       C  0.40121304  0.00103752  0.53727086     0.05600
C1102       C  0.40147917  0.98299421  0.54013960     0.03700
H1103       H  0.40995915  0.01575439  0.52470359     0.08800
H1104       H  0.39703430  0.97599229  0.54631494     0.07600
N1105       N  0.53930676  0.55899433  0.50640513    -0.26800
N1106       N  0.51892022  0.55398477  0.50707838    -0.34600
C1107       C  0.50842898  0.54447684  0.49997420     0.01600
C1108       C  0.52274183  0.54332574  0.49449446     0.07600
C1109       C  0.54219836  0.55265582  0.49879039    -0.05500
H1110       H  0.49161223  0.53908056  0.49886098     0.08300
H1111       H  0.55739585  0.55490951  0.49651178     0.09500
Cu1112     Cu  0.50592433  0.56131508  0.51730865     0.44200
Cu1113     Cu  0.56218473  0.57462457  0.51595861     0.42000
Cu1114     Cu  0.54085572  0.58818791  0.53439460     0.43900
N1115       N  0.49736225  0.57431363  0.52717648    -0.34200
N1116       N  0.51063207  0.58516447  0.53335112    -0.28400
C1117       C  0.50144654  0.59369439  0.53822602    -0.04500
C1118       C  0.48128167  0.58757208  0.53501019     0.07700
C1119       C  0.47921574  0.57524358  0.52803109     0.01500
H1120       H  0.50893025  0.60367885  0.54366285     0.09100
H1121       H  0.46588909  0.56824997  0.52368307     0.08200
N1122       N  0.57155593  0.59220920  0.53367430    -0.35600
N1123       N  0.58002337  0.58858311  0.52693750    -0.27800
C1124       C  0.60082683  0.59479124  0.52857379    -0.03000
C1125       C  0.60541062  0.60229649  0.53675014     0.05600
C1126       C  0.58643275  0.60029135  0.53975937     0.03700
H1127       H  0.61173025  0.59373465  0.52417586     0.08800
H1128       H  0.58376965  0.60498146  0.54587653     0.07600
N1129       N  0.01051347  0.46601773  0.50606211    -0.26800
N1130       N  0.02798386  0.48545165  0.50606420    -0.34600
C1131       C  0.02869402  0.49582404  0.49900942     0.01600
C1132       C  0.01089460  0.48247312  0.49423876     0.07600
C1133       C  0.99960388  0.46364183  0.49890055    -0.05500
H1134       H  0.04164210  0.51181918  0.49741351     0.08300
H1135       H  0.98485844  0.44915632  0.49714076     0.09500
Cu1136     Cu  0.05199329  0.49739699  0.51497311     0.44200
Cu1137     Cu  0.00360863  0.44346102  0.51565692     0.42000
Cu1138     Cu  0.05082426  0.45871291  0.52877102     0.43900
N1139       N  0.07708508  0.50452751  0.52303767    -0.34200
N1140       N  0.07697345  0.48972552  0.52795482    -0.28400
C1141       C  0.09583787  0.49834389  0.53204384    -0.04500
C1142       C  0.10839214  0.51966652  0.52959429     0.07700
C1143       C  0.09598886  0.52308473  0.52388328     0.01500
H1144       H  0.10009450  0.48965767  0.53643082     0.09100
H1145       H  0.10059374  0.53769968  0.52039807     0.08200
N1146       N  0.02183988  0.43003106  0.52994014    -0.35600
N1147       N  0.00418884  0.42463953  0.52558511    -0.27800
C1148       C  0.98813939  0.40553087  0.52847775    -0.03000
C1149       C  0.99631921  0.39860666  0.53483462     0.05600
C1150       C  0.01767435  0.41450868  0.53554860     0.03700
H1151       H  0.97189632  0.39711228  0.52603025     0.08800
H1152       H  0.02931983  0.41501598  0.53995118     0.07600
C1153       C  0.40237844  0.83499428  0.53670189     0.20800
C1154       C  0.40693576  0.81820322  0.53592215    -0.39000
C1155       C  0.39088007  0.79798063  0.53883667     0.19800
C1156       C  0.37162350  0.79465753  0.54216898     0.22500
C1157       C  0.36720614  0.81154556  0.54307171    -0.39500
C1158       C  0.38339936  0.83186002  0.54024991     0.21300
N1159       N  0.41460275  0.85545583  0.53407233    -0.32800
C1160       C  0.40346931  0.86551303  0.53604444    -0.10400
C1161       C  0.38398169  0.85138102  0.53995832    -0.29200
N1162       N  0.35855028  0.77369739  0.54404099    -0.45800
C1163       C  0.36969594  0.76370618  0.54196615    -0.05100
C1164       C  0.38997646  0.77833525  0.53875901    -0.22400
H1165       H  0.42173620  0.82062712  0.53312279     0.19400
H1166       H  0.35214085  0.80898620  0.54564833     0.18200
H1167       H  0.37158063  0.85472653  0.54201227     0.14500
H1168       H  0.40212475  0.77492743  0.53643182     0.14300
H1169       H  0.42950578  0.86211014  0.53104360     0.32500
H1170       H  0.34298945  0.76661778  0.54652677     0.35200
C1171       C  0.41126286  0.60657352  0.54274618     0.20800
C1172       C  0.41405017  0.58988408  0.53957999    -0.39000
C1173       C  0.43517743  0.59365321  0.53971622     0.19800
C1174       C  0.45226157  0.61244491  0.54292038     0.22500
C1175       C  0.44951199  0.62930024  0.54602471    -0.39500
C1176       C  0.42835842  0.62568049  0.54574000     0.21300
N1177       N  0.39298223  0.60737889  0.54277528    -0.32800
C1178       C  0.39843413  0.62728835  0.54564646    -0.10400
C1179       C  0.42037410  0.63918670  0.54760124    -0.29200
N1180       N  0.47086656  0.61234545  0.54199289    -0.45800
C1181       C  0.46555034  0.59355870  0.53801206    -0.05100
C1182       C  0.44345360  0.58149136  0.53651440    -0.22400
H1183       H  0.40082920  0.57530639  0.53693944     0.19400
H1184       H  0.46293694  0.64436895  0.54823813     0.18200
H1185       H  0.42937206  0.65568428  0.54982947     0.14500
H1186       H  0.43470869  0.56615035  0.53329506     0.14300
H1187       H  0.37792101  0.59546441  0.54058922     0.32500
H1188       H  0.48631496  0.62470992  0.54359369     0.35200
C1189       C  0.19951144  0.58685856  0.53674495     0.20800
C1190       C  0.18061315  0.58521169  0.53348567    -0.39000
C1191       C  0.16233491  0.56446145  0.53359945     0.19800
C1192       C  0.16282226  0.54679835  0.53681521     0.22500
C1193       C  0.18174673  0.54842445  0.54002258    -0.39500
C1194       C  0.20008434  0.56911401  0.53981365     0.21300
N1195       N  0.21911743  0.60464650  0.53714797    -0.32800
C1196       C  0.23233472  0.59816161  0.54041100    -0.10400
C1197       C  0.22105326  0.57608255  0.54215039    -0.29200
N1198       N  0.14352077  0.52878149  0.53600642    -0.45800
C1199       C  0.13071079  0.53492398  0.53214122    -0.05100
C1200       C  0.14184355  0.55709291  0.53055897    -0.22400
H1201       H  0.18026759  0.59899189  0.53091829     0.19400
H1202       H  0.18223449  0.53452769  0.54237122     0.18200
H1203       H  0.22734259  0.56643363  0.54473773     0.14500
H1204       H  0.13589500  0.56645837  0.52745955     0.14300
H1205       H  0.22330787  0.62015534  0.53516204     0.32500
H1206       H  0.13954578  0.51315308  0.53773219     0.35200
C1207       C  0.48652569  0.98078599  0.47584422     0.20800
C1208       C  0.49687576  0.97479564  0.46983022    -0.39000
C1209       C  0.50341355  0.98724332  0.46250310     0.19800
C1210       C  0.49993078  0.00435831  0.46130322     0.22500
C1211       C  0.48957423  0.01032839  0.46731042    -0.39500
C1212       C  0.48298061  0.99785064  0.47461884     0.21300
N1213       N  0.47877667  0.97152229  0.48330549    -0.32800
C1214       C  0.47015150  0.98268996  0.48687039    -0.10400
C1215       C  0.47248082  0.99927019  0.48162774    -0.29200
N1216       N  0.50785663  0.01380065  0.45388896    -0.45800
C1217       C  0.51649282  0.00268640  0.45029791    -0.05100
C1218       C  0.51398150  0.98592240  0.45548696    -0.22400
H1219       H  0.49965072  0.96144621  0.47079275     0.19400
H1220       H  0.48687188  0.02372895  0.46636201     0.18200
H1221       H  0.46723076  0.01079765  0.48278143     0.14500
H1222       H  0.51939195  0.97451809  0.45433977     0.14300
H1223       H  0.47927861  0.95832256  0.48578656     0.32500
H1224       H  0.50750119  0.02712926  0.45146319     0.35200
C1225       C  0.51168392  0.50922158  0.45949195     0.20800
C1226       C  0.52758648  0.51845919  0.46572482    -0.39000
C1227       C  0.52127515  0.52397320  0.47321796     0.19800
C1228       C  0.50067795  0.52051227  0.47439853     0.22500
C1229       C  0.48479226  0.51133465  0.46815487    -0.39500
C1230       C  0.49110951  0.50583650  0.46065719     0.21300
N1231       N  0.51347365  0.50200981  0.45193759    -0.32800
C1232       C  0.49390040  0.49388389  0.44823084    -0.10400
C1233       C  0.47954317  0.49611009  0.45347843    -0.29200
N1234       N  0.49862702  0.52688358  0.48208956    -0.45800
C1235       C  0.51805703  0.53453394  0.48586637    -0.05100
C1236       C  0.53261849  0.53297719  0.48050662    -0.22400
H1237       H  0.54364385  0.52098314  0.46483078     0.19400
H1238       H  0.46863467  0.50849819  0.46909696     0.18200
H1239       H  0.46277045  0.49082319  0.45229807     0.14500
H1240       H  0.54922137  0.53771345  0.48177288     0.14300
H1241       H  0.52714174  0.50228990  0.44952464     0.32500
H1242       H  0.48479019  0.52606206  0.48459843     0.35200
C1243       C  0.98478872  0.49714243  0.46051830     0.20800
C1244       C  0.97738060  0.48109349  0.46672360    -0.39000
C1245       C  0.99058304  0.48606908  0.47379406     0.19800
C1246       C  0.00967482  0.50554272  0.47457387     0.22500
C1247       C  0.01707865  0.52156337  0.46837367    -0.39500
C1248       C  0.00387306  0.51661259  0.46131974     0.21300
N1249       N  0.97505959  0.49645933  0.45328273    -0.32800
C1250       C  0.98796393  0.51563772  0.44943204    -0.10400
C1251       C  0.00614789  0.52865734  0.45426378    -0.29200
N1252       N  0.01917276  0.50654003  0.48189249    -0.45800
C1253       C  0.00610527  0.48760819  0.48585917    -0.05100
C1254       C  0.98806752  0.47434188  0.48098450    -0.22400
H1255       H  0.96237742  0.46592220  0.46611091     0.19400
H1256       H  0.03196540  0.53682954  0.46902735     0.18200
H1257       H  0.01916095  0.54477944  0.45284670     0.14500
H1258       H  0.97486638  0.45840520  0.48251033     0.14300
H1259       H  0.96038910  0.48372466  0.45115305     0.32500
H1260       H  0.03367923  0.51946686  0.48404871     0.35200
C1261       C  0.79708687  0.41417828  0.39788182     0.20800
C1262       C  0.81693320  0.41770064  0.40088059    -0.39000
C1263       C  0.83325497  0.43939232  0.40157128     0.19800
C1264       C  0.83014270  0.45629993  0.39937212     0.22500
C1265       C  0.81022536  0.45278793  0.39645855    -0.39500
C1266       C  0.79385087  0.43108744  0.39582438     0.21300
N1267       N  0.77884314  0.39509119  0.39689217    -0.32800
C1268       C  0.76381948  0.39990380  0.39427612    -0.10400
C1269       C  0.77259935  0.42218883  0.39351724    -0.29200
N1270       N  0.84815677  0.47540276  0.40068040    -0.45800
C1271       C  0.86271169  0.47057399  0.40383490    -0.05100
C1272       C  0.85401870  0.44830202  0.40448460    -0.22400
H1273       H  0.81940574  0.40453828  0.40264664     0.19400
H1274       H  0.80759602  0.46597001  0.39489782     0.18200
H1275       H  0.76443534  0.43076189  0.39169771     0.14500
H1276       H  0.86179866  0.43978620  0.40682607     0.14300
H1277       H  0.77661224  0.37980946  0.39817149     0.32500
H1278       H  0.85023844  0.49074482  0.39969131     0.35200
C1279       C  0.59897977  0.16093390  0.40349545     0.20800
C1280       C  0.59316470  0.17693107  0.40346084    -0.39000
C1281       C  0.60897883  0.19728062  0.40052229     0.19800
C1282       C  0.62905902  0.20137460  0.39786296     0.22500
C1283       C  0.63478147  0.18532532  0.39781150    -0.39500
C1284       C  0.61894714  0.16496529  0.40071360     0.21300
N1285       N  0.58726655  0.14062039  0.40637022    -0.32800
C1286       C  0.59984831  0.13164445  0.40539117    -0.10400
C1287       C  0.61966615  0.14628259  0.40181716    -0.29200
N1288       N  0.64155950  0.22222836  0.39573958    -0.45800
C1289       C  0.62934248  0.23148926  0.39701765    -0.05100
C1290       C  0.60886061  0.21641100  0.39995792    -0.22400
H1291       H  0.57764420  0.17387636  0.40571113     0.19400
H1292       H  0.65055566  0.18856910  0.39581675     0.18200
H1293       H  0.63307765  0.14384690  0.40048473     0.14500
H1294       H  0.59586347  0.21918885  0.40167292     0.14300
H1295       H  0.57181336  0.13344762  0.40896164     0.32500
H1296       H  0.65750099  0.22972057  0.39363727     0.35200
C1297       C  0.58732122  0.38867030  0.40071132     0.20800
C1298       C  0.58582144  0.40660555  0.40327455    -0.39000
C1299       C  0.56494005  0.40353705  0.40351233     0.19800
C1300       C  0.54694332  0.38413995  0.40130416     0.22500
C1301       C  0.54841466  0.36609875  0.39884500    -0.39500
C1302       C  0.56930035  0.36912386  0.39866444     0.21300
N1303       N  0.60532594  0.38748864  0.39994169    -0.32800
C1304       C  0.59872632  0.36697831  0.39747118    -0.10400
C1305       C  0.57635110  0.35499865  0.39662654    -0.29200
N1306       N  0.52897908  0.38544726  0.40200584    -0.45800
C1307       C  0.53557366  0.40574657  0.40477006    -0.05100
C1308       C  0.55789657  0.41750083  0.40579363    -0.22400
H1309       H  0.59987720  0.42182034  0.40496759     0.19400
H1310       H  0.53434632  0.35084077  0.39720419     0.18200
H1311       H  0.56659103  0.33827546  0.39473774     0.14500
H1312       H  0.56764819  0.43400889  0.40793379     0.14300
H1313       H  0.62109614  0.39980586  0.40113650     0.32500
H1314       H  0.51318608  0.37315582  0.40082914     0.35200
C1315       C  0.28090801  0.74848376  0.23205211     0.20800
C1316       C  0.26428084  0.75107224  0.23540093    -0.39000
C1317       C  0.26800568  0.77224293  0.23542967     0.19800
C1318       C  0.28676595  0.78950710  0.23229221     0.22500
C1319       C  0.30345329  0.78693263  0.22897109    -0.39500
C1320       C  0.29980716  0.76576540  0.22901286     0.21300
N1321       N  0.28164517  0.73014982  0.23163465    -0.32800
C1322       C  0.30125025  0.73581564  0.22839156    -0.10400
C1323       C  0.31302640  0.75789206  0.22665145    -0.29200
N1324       N  0.28663801  0.80806876  0.23330412    -0.45800
C1325       C  0.26776583  0.80257821  0.23720169    -0.05100
C1326       C  0.25568627  0.78036638  0.23859823    -0.22400
H1327       H  0.24971219  0.73766047  0.23795912     0.19400
H1328       H  0.31834890  0.80046485  0.22668978     0.18200
H1329       H  0.32921951  0.76702107  0.22415683     0.14500
H1330       H  0.24019088  0.77141324  0.24167607     0.14300
H1331       H  0.26978764  0.71486694  0.23367197     0.32500
H1332       H  0.29891582  0.82355847  0.23167594     0.35200
C1333       C  0.46953365  0.71274340  0.22537778     0.20800
C1334       C  0.48678735  0.70886552  0.22472507    -0.39000
C1335       C  0.50691059  0.72583855  0.22731192     0.19800
C1336       C  0.50958181  0.74507801  0.23043406     0.22500
C1337       C  0.49240238  0.74910582  0.23094838    -0.39500
C1338       C  0.47233711  0.73223879  0.22825296     0.21300
N1339       N  0.44864183  0.69882610  0.22373355    -0.32800
C1340       C  0.43811968  0.70963540  0.22548374    -0.10400
C1341       C  0.45237469  0.73057407  0.22825677    -0.29200
N1342       N  0.52988709  0.75787165  0.23313134    -0.45800
C1343       C  0.54025153  0.74677727  0.23163131    -0.05100
C1344       C  0.52652349  0.72683778  0.22792313    -0.22400
H1345       H  0.48460840  0.69356816  0.22255814     0.19400
H1346       H  0.49439643  0.76405190  0.23345447     0.18200
H1347       H  0.44853139  0.74265646  0.23030094     0.14500
H1348       H  0.53008450  0.71426680  0.22634059     0.14300
H1349       H  0.44193346  0.68290502  0.22163752     0.32500
H1350       H  0.53615804  0.77295607  0.23600672     0.35200
C1351       C  0.24106658  0.54179187  0.23404305     0.20800
C1352       C  0.21908516  0.52608883  0.23400488    -0.39000
C1353       C  0.21399901  0.50560967  0.23688337     0.19800
C1354       C  0.22960680  0.50124360  0.23971256     0.22500
C1355       C  0.25162613  0.51690442  0.23967930    -0.39500
C1356       C  0.25674836  0.53731889  0.23667926     0.21300
N1357       N  0.24999631  0.56246016  0.23163281    -0.32800
C1358       C  0.27154257  0.57120609  0.23265118    -0.10400
C1359       C  0.27642904  0.55600947  0.23576302    -0.29200
N1360       N  0.22058090  0.48064187  0.24224184    -0.45800
C1361       C  0.19912767  0.47176556  0.24090375    -0.05100
C1362       C  0.19437042  0.48680294  0.23754727    -0.22400
H1363       H  0.20686033  0.52955530  0.23186758     0.19400
H1364       H  0.26384974  0.51342987  0.24181066     0.18200
H1365       H  0.29216620  0.55840016  0.23727377     0.14500
H1366       H  0.17868711  0.48436455  0.23590371     0.14300
H1367       H  0.24189032  0.57009908  0.22939125     0.32500
H1368       H  0.22856234  0.47302192  0.24463028     0.35200
C1369       C  0.65016625  0.82987538  0.31004649     0.20800
C1370       C  0.63774373  0.82484436  0.30274563    -0.39000
C1371       C  0.64323977  0.81512989  0.29630029     0.19800
C1372       C  0.65980248  0.81067296  0.29704535     0.22500
C1373       C  0.67227288  0.81574503  0.30434594    -0.39500
C1374       C  0.66679977  0.82551679  0.31078911     0.21300
N1375       N  0.64865025  0.83984830  0.31694837    -0.32800
C1376       C  0.66454847  0.84201577  0.32211831    -0.10400
C1377       C  0.67611786  0.83315242  0.31848883    -0.29200
N1378       N  0.66195960  0.80168618  0.28996548    -0.45800
C1379       C  0.64668850  0.80049109  0.28465735    -0.05100
C1380       C  0.63472166  0.80872111  0.28841555    -0.22400
H1381       H  0.62490124  0.82847159  0.30208769     0.19400
H1382       H  0.68544041  0.81257455  0.30493154     0.18200
H1383       H  0.68987716  0.83281225  0.32104119     0.14500
H1384       H  0.62160876  0.81000776  0.28572892     0.14300
H1385       H  0.63786901  0.84537565  0.31797016     0.32500
H1386       H  0.67326421  0.79690240  0.28879288     0.35200
C1387       C  0.63344350  0.94995076  0.38177597     0.20800
C1388       C  0.61686797  0.94632096  0.38742330    -0.39000
C1389       C  0.61861968  0.96486517  0.39124209     0.19800
C1390       C  0.63547164  0.98540514  0.38947705     0.22500
C1391       C  0.65215798  0.98900849  0.38394651    -0.39500
C1392       C  0.65054637  0.97050832  0.38022727     0.21300
N1393       N  0.63567306  0.93511855  0.37736882    -0.32800
C1394       C  0.65451843  0.94635063  0.37311351    -0.10400
C1395       C  0.66425604  0.96842969  0.37477085    -0.29200
N1396       N  0.63323689  0.00037823  0.39370533    -0.45800
C1397       C  0.61492380  0.98940987  0.39828531    -0.05100
C1398       C  0.60538171  0.96716117  0.39695168    -0.22400
H1399       H  0.60360726  0.93026357  0.38874893     0.19400
H1400       H  0.66546378  0.00506417  0.38264540     0.18200
H1401       H  0.67942190  0.98123208  0.37233523     0.14500
H1402       H  0.59054857  0.95445228  0.39964359     0.14300
H1403       H  0.62540102  0.91837993  0.37744654     0.32500
H1404       H  0.64358807  0.01709196  0.39346898     0.35200
C1405       C  0.17220901  0.34541324  0.29451277     0.20800
C1406       C  0.18811423  0.35333333  0.30074165    -0.39000
C1407       C  0.18277945  0.34104285  0.30807648     0.19800
C1408       C  0.16309960  0.32229596  0.30909184     0.22500
C1409       C  0.14717866  0.31437003  0.30285635    -0.39500
C1410       C  0.15250610  0.32668725  0.29551947     0.21300
N1411       N  0.17323154  0.35443291  0.28707819    -0.32800
C1412       C  0.15402953  0.34148903  0.28329536    -0.10400
C1413       C  0.14065476  0.32390034  0.28835920    -0.29200
N1414       N  0.16196411  0.31355155  0.31660966    -0.45800
C1415       C  0.18104581  0.32676592  0.32043417    -0.05100
C1416       C  0.19447248  0.34415737  0.31530011    -0.22400
H1417       H  0.20346786  0.36805017  0.29994531     0.19400
H1418       H  0.13175038  0.29975750  0.30367983     0.18200
H1419       H  0.12436547  0.31110847  0.28706332     0.14500
H1420       H  0.21061704  0.35719299  0.31663562     0.14300
H1421       H  0.18618382  0.36877441  0.28480297     0.32500
H1422       H  0.14895520  0.29935832  0.31895592     0.35200
C1423       C  0.35259132  0.39021137  0.38953806     0.20800
C1424       C  0.33805348  0.39363356  0.38479056    -0.39000
C1425       C  0.32166169  0.37534604  0.38063281     0.19800
C1426       C  0.31986059  0.35524448  0.38127905     0.22500
C1427       C  0.33454452  0.35192642  0.38587276    -0.39500
C1428       C  0.35098165  0.37015869  0.38991628     0.21300
N1429       N  0.36965871  0.40483521  0.39402946    -0.32800
C1430       C  0.37912711  0.39401714  0.39713621    -0.10400
C1431       C  0.36792627  0.37238949  0.39467750    -0.29200
N1432       N  0.30258331  0.34028943  0.37706973    -0.45800
C1433       C  0.29324273  0.35077350  0.37358871    -0.05100
C1434       C  0.30479137  0.37278763  0.37561380    -0.22400
H1435       H  0.33937886  0.40933230  0.38437767     0.19400
H1436       H  0.33324116  0.33623275  0.38627725     0.18200
H1437       H  0.37180960  0.35999132  0.39612155     0.14500
H1438       H  0.30099453  0.38507266  0.37386887     0.14300
H1439       H  0.37496807  0.42127044  0.39470642     0.32500
H1440       H  0.29741949  0.32384017  0.37661074     0.35200
C1441       C  0.17062173  0.84949368  0.29395644     0.20800
C1442       C  0.16554009  0.85754331  0.30109202    -0.39000
C1443       C  0.15628048  0.84296653  0.30777180     0.19800
C1444       C  0.15237077  0.82199355  0.30737567     0.22500
C1445       C  0.15742472  0.81395728  0.30024546    -0.39500
C1446       C  0.16669514  0.82851532  0.29358246     0.21300
N1447       N  0.18014673  0.86023843  0.28687378    -0.32800
C1448       C  0.18241510  0.84600850  0.28197985    -0.10400
C1449       C  0.17409306  0.82603446  0.28595310    -0.29200
N1450       N  0.14361284  0.81141829  0.31455891    -0.45800
C1451       C  0.14187381  0.82572215  0.31959174    -0.05100
C1452       C  0.14963453  0.84559274  0.31556004    -0.22400
H1453       H  0.16873103  0.87398721  0.30144715     0.19400
H1454       H  0.15454700  0.79761906  0.29993634     0.18200
H1455       H  0.17392155  0.81172852  0.28366038     0.14500
H1456       H  0.15031759  0.86003605  0.31798543     0.14300
H1457       H  0.18526641  0.87638422  0.28554906     0.32500
H1458       H  0.13904421  0.79542819  0.31593135     0.35200
C1459       C  0.04651096  0.68686837  0.38051954     0.20800
C1460       C  0.04981687  0.67267354  0.38554582    -0.39000
C1461       C  0.03155395  0.65679034  0.38986219     0.19800
C1462       C  0.01155424  0.65507890  0.38910044     0.22500
C1463       C  0.00833540  0.66940818  0.38421335    -0.39500
C1464       C  0.02656794  0.68538455  0.38001986     0.21300
N1465       N  0.06122452  0.70365091  0.37592412    -0.32800
C1466       C  0.05055740  0.71306398  0.37263492    -0.10400
C1467       C  0.02895967  0.70211514  0.37507081    -0.29200
N1468       N  0.99661477  0.63828142  0.39353270    -0.45800
C1469       C  0.00706608  0.62922855  0.39726123    -0.05100
C1470       C  0.02897561  0.64041907  0.39518113    -0.22400
H1471       H  0.06543182  0.67393136  0.38607437     0.19400
H1472       H  0.99274931  0.66824422  0.38373387     0.18200
H1473       H  0.01673181  0.70615197  0.37354970     0.14500
H1474       H  0.04115859  0.63663789  0.39706717     0.14300
H1475       H  0.07763944  0.70892821  0.37535163     0.32500
H1476       H  0.98021563  0.63320206  0.39395800     0.35200
C1477       C  0.04395607  0.88223510  0.37120191     0.20800
C1478       C  0.02690523  0.88424080  0.37451100    -0.39000
C1479       C  0.03036560  0.90533768  0.37482369     0.19800
C1480       C  0.04943932  0.92303077  0.37213299     0.22500
C1481       C  0.06632804  0.92098666  0.36872921    -0.39500
C1482       C  0.06279962  0.89992219  0.36834836     0.21300
N1483       N  0.04464392  0.86398387  0.37013312    -0.32800
C1484       C  0.06397009  0.87012343  0.36649311    -0.10400
C1485       C  0.07572600  0.89241022  0.36527594    -0.29200
N1486       N  0.04879019  0.94130178  0.37306598    -0.45800
C1487       C  0.02905911  0.93522911  0.37626155    -0.05100
C1488       C  0.01704288  0.91290341  0.37743866    -0.22400
H1489       H  0.01201201  0.87040432  0.37662227     0.19400
H1490       H  0.08107926  0.93477975  0.36648880     0.18200
H1491       H  0.09155091  0.90184148  0.36248970     0.14500
H1492       H  0.00075483  0.90350449  0.37982071     0.14300
H1493       H  0.03255351  0.84830957  0.37164320     0.32500
H1494       H  0.06082082  0.95687874  0.37140351     0.35200
C1495       C  0.08038531  0.13692460  0.37285211     0.20800
C1496       C  0.08369943  0.15677477  0.36986594    -0.39000
C1497       C  0.10525986  0.17347909  0.36933370     0.19800
C1498       C  0.12225899  0.17075568  0.37170416     0.22500
C1499       C  0.11894246  0.15084483  0.37466806    -0.39500
C1500       C  0.09735033  0.13403078  0.37510825     0.21300
N1501       N  0.06149687  0.11829930  0.37351113    -0.32800
C1502       C  0.06639594  0.10329063  0.37611700    -0.10400
C1503       C  0.08862806  0.11253741  0.37722394    -0.29200
N1504       N  0.14123396  0.18895870  0.37033721    -0.45800
C1505       C  0.13626130  0.20324801  0.36696051    -0.05100
C1506       C  0.11397397  0.19416960  0.36626334    -0.22400
H1507       H  0.07047987  0.15890217  0.36789878     0.19400
H1508       H  0.13221291  0.14847554  0.37631596     0.18200
H1509       H  0.09729974  0.10451563  0.37909602     0.14500
H1510       H  0.10531128  0.20157712  0.36371216     0.14300
H1511       H  0.04627709  0.11584261  0.37201158     0.32500
H1512       H  0.15661201  0.19127219  0.37137448     0.35200
C1513       C  0.86451434  0.94938549  0.36857769     0.20800
C1514       C  0.84487226  0.93195092  0.36582396    -0.39000
C1515       C  0.82787923  0.93613852  0.36501528     0.19800
C1516       C  0.83022957  0.95609200  0.36688569     0.22500
C1517       C  0.84990062  0.97355439  0.36958666    -0.39500
C1518       C  0.86694572  0.96943009  0.37032142     0.21300
N1519       N  0.88319977  0.94970321  0.36969053    -0.32800
C1520       C  0.89768910  0.97015843  0.37207527    -0.10400
C1521       C  0.88814479  0.98293584  0.37254704    -0.29200
N1522       N  0.81170477  0.95595836  0.36557777    -0.45800
C1523       C  0.79750907  0.93583642  0.36278290    -0.05100
C1524       C  0.80699856  0.92299857  0.36234148    -0.22400
H1525       H  0.84301841  0.91635255  0.36434472     0.19400
H1526       H  0.85184138  0.98924840  0.37093753     0.18200
H1527       H  0.89571429  0.99984542  0.37422749     0.14500
H1528       H  0.79963806  0.90633286  0.36033490     0.14300
H1529       H  0.88599420  0.93689924  0.36871678     0.32500
H1530       H  0.80900647  0.96886632  0.36642044     0.35200
C1531       C  0.76868651  0.50980137  0.70080687     0.20800
C1532       C  0.74711071  0.49307765  0.70052920    -0.39000
C1533       C  0.74325797  0.47272315  0.70305968     0.19800
C1534       C  0.75969420  0.46923315  0.70555683     0.22500
C1535       C  0.78126131  0.48603070  0.70594397    -0.39500
C1536       C  0.78507259  0.50647608  0.70352739     0.21300
N1537       N  0.77658726  0.53042910  0.69847987    -0.32800
C1538       C  0.79811402  0.54040009  0.69982483    -0.10400
C1539       C  0.80403941  0.52604383  0.70302488    -0.29200
N1540       N  0.75190442  0.44826646  0.70732642    -0.45800
C1541       C  0.73033379  0.43840802  0.70603932    -0.05100
C1542       C  0.72431091  0.45314928  0.70341545    -0.22400
H1543       H  0.73429508  0.49568507  0.69842009     0.19400
H1544       H  0.79413120  0.48334044  0.70790517     0.18200
H1545       H  0.82010704  0.52932086  0.70451334     0.14500
H1546       H  0.70832468  0.44989333  0.70179303     0.14300
H1547       H  0.76788517  0.53728794  0.69608556     0.32500
H1548       H  0.76072284  0.44111769  0.70928616     0.35200
C1549       C  0.72335921  0.22292534  0.70569072     0.20800
C1550       C  0.70608434  0.22515141  0.70853616    -0.39000
C1551       C  0.70817190  0.24546853  0.70726518     0.19800
C1552       C  0.72619697  0.26236108  0.70353386     0.22500
C1553       C  0.74336244  0.26006694  0.70059330    -0.39500
C1554       C  0.74116675  0.23966938  0.70178748     0.21300
N1555       N  0.72485674  0.20498306  0.70584338    -0.32800
C1556       C  0.74356980  0.21023845  0.70188052    -0.10400
C1557       C  0.75423672  0.23175669  0.69929059    -0.29200
N1558       N  0.72424273  0.28000927  0.70306568    -0.45800
C1559       C  0.70472298  0.27420371  0.70643546    -0.05100
C1560       C  0.69419372  0.25277499  0.70910262    -0.22400
H1561       H  0.69192629  0.21194518  0.71141813     0.19400
H1562       H  0.75724257  0.27309125  0.69749759     0.18200
H1563       H  0.76918807  0.24025907  0.69581878     0.14500
H1564       H  0.67848377  0.24379257  0.71201945     0.14300
H1565       H  0.71338378  0.18984985  0.70815308     0.32500
H1566       H  0.73533888  0.29494636  0.70049118     0.35200
C1567       C  0.53241318  0.27776055  0.70465595     0.20800
C1568       C  0.51317486  0.26071154  0.70138364    -0.39000
C1569       C  0.49521078  0.26355984  0.70168773     0.19800
C1570       C  0.49632444  0.28190638  0.70505796     0.22500
C1571       C  0.51560048  0.29903997  0.70823698    -0.39500
C1572       C  0.53358425  0.29627511  0.70787044     0.21300
N1573       N  0.55180121  0.27918379  0.70496525    -0.32800
C1574       C  0.56547516  0.29886314  0.70829686    -0.10400
C1575       C  0.55468966  0.30999091  0.71019013    -0.29200
N1576       N  0.47710459  0.28077737  0.70458903    -0.45800
C1577       C  0.46364846  0.26168100  0.70081302    -0.05100
C1578       C  0.47437003  0.25047366  0.69889911    -0.22400
H1579       H  0.51230677  0.24638103  0.69873257     0.19400
H1580       H  0.51656569  0.31354789  0.71074268     0.18200
H1581       H  0.56142045  0.32602785  0.71282910     0.14500
H1582       H  0.46785276  0.23494388  0.69583582     0.14300
H1583       H  0.55560117  0.26770967  0.70283200     0.32500
H1584       H  0.47351093  0.29251718  0.70656331     0.35200
C1585       C  0.82302226  0.67439574  0.62834454     0.20800
C1586       C  0.81482783  0.66178524  0.63558844    -0.39000
C1587       C  0.83000721  0.66530448  0.64181594     0.19800
C1588       C  0.85170199  0.68033971  0.64094546     0.22500
C1589       C  0.85990227  0.69301577  0.63370092    -0.39500
C1590       C  0.84471874  0.68940387  0.62744422     0.21300
N1591       N  0.81200801  0.67362982  0.62143540    -0.32800
C1592       C  0.82677543  0.68821300  0.61605542    -0.10400
C1593       C  0.84736020  0.69842294  0.61961093    -0.29200
N1594       N  0.86281671  0.68023356  0.64770065    -0.45800
C1595       C  0.84809428  0.66492542  0.65289803    -0.05100
C1596       C  0.82745868  0.65532572  0.64942326    -0.22400
H1597       H  0.79790551  0.64986947  0.63627810     0.19400
H1598       H  0.87689069  0.70462315  0.63294115     0.18200
H1599       H  0.86231806  0.71060555  0.61680867     0.14500
H1600       H  0.81256801  0.64258039  0.65206283     0.14300
H1601       H  0.79548922  0.66362634  0.62042102     0.32500
H1602       H  0.87942011  0.68975076  0.64865240     0.35200
C1603       C  0.66000900  0.62770837  0.54418472     0.20800
C1604       C  0.68265725  0.63969953  0.54368358    -0.39000
C1605       C  0.69365900  0.64590886  0.55135818     0.19800
C1606       C  0.68294820  0.64028154  0.55895209     0.22500
C1607       C  0.66033639  0.62861019  0.55944823    -0.39500
C1608       C  0.64934892  0.62269458  0.55178597     0.21300
N1609       N  0.64579384  0.62046182  0.53781979    -0.32800
C1610       C  0.62595026  0.61110671  0.54140563    -0.10400
C1611       C  0.62757368  0.61221140  0.55010337    -0.29200
N1612       N  0.69702295  0.64828973  0.56533452    -0.45800
C1613       C  0.71684763  0.65948830  0.56179252    -0.05100
C1614       C  0.71539940  0.65839302  0.55308462    -0.22400
H1615       H  0.69108431  0.64418186  0.53775831     0.19400
H1616       H  0.65189533  0.62472184  0.56536997     0.18200
H1617       H  0.61454998  0.60640790  0.55460073     0.14500
H1618       H  0.72848966  0.66593188  0.54862379     0.14300
H1619       H  0.64937165  0.62242581  0.53144328     0.32500
H1620       H  0.69333627  0.64689171  0.57170020     0.35200
C1621       C  0.37122267  0.04725744  0.55988940     0.20800
C1622       C  0.38258172  0.03603124  0.56026111    -0.39000
C1623       C  0.38687891  0.02952657  0.55254297     0.19800
C1624       C  0.38074875  0.03424615  0.54501594     0.22500
C1625       C  0.36923456  0.04528754  0.54465065    -0.39500
C1626       C  0.36457547  0.05140726  0.55236730     0.21300
N1627       N  0.36403734  0.05404073  0.56634517    -0.32800
C1628       C  0.35238512  0.06218338  0.56290370    -0.10400
C1629       C  0.35242167  0.06085389  0.55420272    -0.29200
N1630       N  0.38591030  0.02551213  0.53859626    -0.45800
C1631       C  0.39495810  0.01472102  0.54205863    -0.05100
C1632       C  0.39591572  0.01693064  0.55074430    -0.22400
H1633       H  0.38712499  0.03203957  0.56613811     0.19400
H1634       H  0.36369993  0.04828449  0.53879937     0.18200
H1635       H  0.34421561  0.06568431  0.54981096     0.14500
H1636       H  0.40185274  0.00975695  0.55516179     0.14300
H1637       H  0.36615332  0.05240361  0.57269699     0.32500
H1638       H  0.38251904  0.02595942  0.53228546     0.35200
C1639       C  0.34121157  0.16863878  0.64409111     0.20800
C1640       C  0.34811205  0.15917879  0.63805069    -0.39000
C1641       C  0.33565156  0.15195074  0.63076775     0.19800
C1642       C  0.31769824  0.15402854  0.62960577     0.22500
C1643       C  0.31078421  0.16351115  0.63565243    -0.39500
C1644       C  0.32328210  0.17077010  0.64294413     0.21300
N1645       N  0.35046106  0.17690726  0.65148800    -0.32800
C1646       C  0.33845140  0.18446615  0.65511704    -0.10400
C1647       C  0.32130095  0.18093466  0.64996639    -0.29200
N1648       N  0.30883498  0.14620846  0.62210409    -0.45800
C1649       C  0.32121522  0.13910198  0.61844122    -0.05100
C1650       C  0.33809294  0.14236135  0.62367668    -0.22400
H1651       H  0.36223222  0.15767176  0.63894300     0.19400
H1652       H  0.29680028  0.16523153  0.63472098     0.18200
H1653       H  0.30912568  0.18527787  0.65117165     0.14500
H1654       H  0.35060480  0.13851651  0.62242728     0.14300
H1655       H  0.36428448  0.17752284  0.65386473     0.32500
H1656       H  0.29523762  0.14587864  0.61962788     0.35200
C1657       C  0.82678335  0.16179037  0.62545854     0.20800
C1658       C  0.81802494  0.14600891  0.63174198    -0.39000
C1659       C  0.81169365  0.15201314  0.63908763     0.19800
C1660       C  0.81398557  0.17224664  0.64010148     0.22500
C1661       C  0.82270142  0.18805308  0.63379433    -0.39500
C1662       C  0.82901383  0.18201398  0.62642417     0.21300
N1663       N  0.83441656  0.16012005  0.61800178    -0.32800
C1664       C  0.84164618  0.17939637  0.61413570    -0.10400
C1665       C  0.83848202  0.19350348  0.61919380    -0.29200
N1666       N  0.80715670  0.17407001  0.64772760    -0.45800
C1667       C  0.80041092  0.15484663  0.65160012    -0.05100
C1668       C  0.80295081  0.14065334  0.64638384    -0.22400
H1669       H  0.81643531  0.13025310  0.63098877     0.19400
H1670       H  0.82460918  0.20392911  0.63459832     0.18200
H1671       H  0.84287707  0.21001647  0.61784079     0.14500
H1672       H  0.79918139  0.12434202  0.64777361     0.14300
H1673       H  0.83490520  0.14668332  0.61574786     0.32500
H1674       H  0.80715581  0.18762555  0.65013981     0.35200
C1675       C  0.94629715  0.31948910  0.55585022     0.20800
C1676       C  0.94282703  0.33395755  0.55109307    -0.39000
C1677       C  0.96107317  0.35041855  0.54698203     0.19800
C1678       C  0.98121579  0.35243730  0.54770648     0.22500
C1679       C  0.98461457  0.33786764  0.55234658    -0.39500
C1680       C  0.96638397  0.32128559  0.55631835     0.21300
N1681       N  0.93164722  0.30223883  0.56023723    -0.32800
C1682       C  0.94250262  0.29286029  0.56336345    -0.10400
C1683       C  0.96416780  0.30428724  0.56104264    -0.29200
N1684       N  0.99605222  0.36965266  0.54343519    -0.45800
C1685       C  0.98536655  0.37862285  0.53983832    -0.05100
C1686       C  0.96344095  0.36701715  0.54185755    -0.22400
H1687       H  0.92709722  0.33244925  0.55059580     0.19400
H1688       H  0.00031333  0.33927649  0.55279392     0.18200
H1689       H  0.97660809  0.30055304  0.56256384     0.14500
H1690       H  0.95107128  0.37056433  0.54000715     0.14300
H1691       H  0.91520941  0.29681156  0.56085677     0.32500
H1692       H  0.01249473  0.37494935  0.54297511     0.35200
C1693       C  0.95432147  0.12684535  0.56890922     0.20800
C1694       C  0.97257741  0.12517590  0.56711718    -0.39000
C1695       C  0.96903166  0.10408012  0.56657313     0.19800
C1696       C  0.94881552  0.08603736  0.56764821     0.22500
C1697       C  0.93058215  0.08771073  0.56948571    -0.39500
C1698       C  0.93416743  0.10880471  0.57011726     0.21300
N1699       N  0.95357633  0.14504013  0.57006151    -0.32800
C1700       C  0.93286754  0.13854103  0.57213732    -0.10400
C1701       C  0.92025402  0.11604917  0.57220834    -0.29200
N1702       N  0.94977718  0.06784576  0.56694487    -0.45800
C1703       C  0.97079000  0.07433514  0.56548007    -0.05100
C1704       C  0.98329563  0.09684111  0.56520474    -0.22400
H1705       H  0.98843052  0.13926313  0.56634133     0.19400
H1706       H  0.91483989  0.07363325  0.57049260     0.18200
H1707       H  0.90329649  0.10631757  0.57372821     0.14500
H1708       H  0.00051623  0.10660387  0.56421077     0.14300
H1709       H  0.96650987  0.16087800  0.56971968     0.32500
H1710       H  0.93697549  0.05201757  0.56758062     0.35200
C1711       C  0.18064875  0.08199220  0.56702212     0.20800
C1712       C  0.16366557  0.08578703  0.56870670    -0.39000
C1713       C  0.14328165  0.06976831  0.56595048     0.19800
C1714       C  0.13998966  0.05122412  0.56192225     0.22500
C1715       C  0.15706045  0.04758512  0.56011804    -0.39500
C1716       C  0.17753011  0.06375330  0.56279397     0.21300
N1717       N  0.20115604  0.09390463  0.56958426    -0.32800
C1718       C  0.21123203  0.08325075  0.56695698    -0.10400
C1719       C  0.19711123  0.06451274  0.56259031    -0.29200
N1720       N  0.11889171  0.03790245  0.56040899    -0.45800
C1721       C  0.10877938  0.04821099  0.56340165    -0.05100
C1722       C  0.12346421  0.06817240  0.56685733    -0.22400
H1723       H  0.16605666  0.09990092  0.57211113     0.19400
H1724       H  0.15451076  0.03298663  0.55706332     0.18200
H1725       H  0.20035865  0.05236030  0.56011864     0.14500
H1726       H  0.12001880  0.07965311  0.56986215     0.14300
H1727       H  0.20767407  0.10797901  0.57318471     0.32500
H1728       H  0.11180866  0.02273434  0.55754911     0.35200
C1729       C  0.89069841  0.83817867  0.56296559     0.20800
C1730       C  0.89314948  0.85811574  0.56050855    -0.39000
C1731       C  0.91400554  0.87608794  0.56131466     0.19800
C1732       C  0.93115113  0.87425528  0.56421740     0.22500
C1733       C  0.92868498  0.85436312  0.56670091    -0.39500
C1734       C  0.90779309  0.83647734  0.56602151     0.21300
N1735       N  0.87228227  0.81898677  0.56335451    -0.32800
C1736       C  0.87764356  0.80508081  0.56682132    -0.10400
C1737       C  0.89967155  0.81538789  0.56852680    -0.29200
N1738       N  0.94907722  0.89377468  0.56475050    -0.45800
C1739       C  0.94329720  0.90823817  0.56229231    -0.05100
C1740       C  0.92154385  0.89780306  0.56006382    -0.22400
H1741       H  0.87967444  0.85962737  0.55838589     0.19400
H1742       H  0.94191829  0.85302899  0.56923905     0.18200
H1743       H  0.90843149  0.80855832  0.57147312     0.14500
H1744       H  0.91236479  0.90513731  0.55800282     0.14300
H1745       H  0.85686931  0.81581109  0.56174261     0.32500
H1746       H  0.96412455  0.89709058  0.56694689     0.35200
C1747       C  0.79402591  0.36607662  0.89385276     0.20800
C1748       C  0.80925881  0.35927493  0.89408208    -0.39000
C1749       C  0.82955625  0.37434868  0.89728870     0.19800
C1750       C  0.83421498  0.39457155  0.90005470     0.22500
C1751       C  0.81906964  0.40140465  0.89977755    -0.39500
C1752       C  0.79884702  0.38639029  0.89656357     0.21300
N1753       N  0.77325693  0.35441815  0.89153920    -0.32800
C1754       C  0.76484740  0.36742541  0.89281235    -0.10400
C1755       C  0.78038253  0.38755594  0.89587248    -0.29200
N1756       N  0.85428899  0.40560786  0.90310925    -0.45800
C1757       C  0.86257008  0.39238395  0.90228411    -0.05100
C1758       C  0.84765683  0.37273439  0.89864642    -0.22400
H1759       H  0.80545492  0.34329834  0.89207594     0.19400
H1760       H  0.82263532  0.41709974  0.90205997     0.18200
H1761       H  0.77825020  0.40091642  0.89769657     0.14500
H1762       H  0.84962173  0.35900070  0.89733298     0.14300
H1763       H  0.76519230  0.33841693  0.88945834     0.32500
H1764       H  0.86176363  0.42112633  0.90567415     0.35200
C1765       C  0.57889735  0.20604028  0.90419794     0.20800
C1766       C  0.56546252  0.19118094  0.91020620    -0.39000
C1767       C  0.55453180  0.16957110  0.90766965     0.19800
C1768       C  0.55647561  0.16315692  0.89970374     0.22500
C1769       C  0.57038546  0.17803730  0.89372389    -0.39500
C1770       C  0.58165904  0.19974307  0.89631860     0.21300
N1771       N  0.59047751  0.22755717  0.90503901    -0.32800
C1772       C  0.60105670  0.23506497  0.89771710    -0.10400
C1773       C  0.59617455  0.21826733  0.89211493    -0.29200
N1774       N  0.54354163  0.14166758  0.89880486    -0.45800
C1775       C  0.53371562  0.13452222  0.90631469    -0.05100
C1776       C  0.54026090  0.15140707  0.91199402    -0.22400
H1777       H  0.56351090  0.19611588  0.91638908     0.19400
H1778       H  0.57215743  0.17312577  0.88751255     0.18200
H1779       H  0.60199622  0.21952383  0.88578050     0.14500
H1780       H  0.53498506  0.15053039  0.91839488     0.14300
H1781       H  0.59127259  0.23660958  0.91029334     0.32500
H1782       H  0.54171491  0.13242775  0.89348522     0.35200
C1783       C  0.63062050  0.43064777  0.89846948     0.20800
C1784       C  0.63600173  0.45234658  0.89784682    -0.39000
C1785       C  0.61978519  0.45676353  0.90022289     0.19800
C1786       C  0.59979815  0.44078386  0.90303965     0.22500
C1787       C  0.59435378  0.41906947  0.90359232    -0.39500
C1788       C  0.61053758  0.41464974  0.90119166     0.21300
N1789       N  0.64346627  0.42242416  0.89691742    -0.32800
C1790       C  0.63147601  0.40102989  0.89865662    -0.10400
C1791       C  0.61079368  0.39555438  0.90129616    -0.29200
N1792       N  0.58765285  0.44928996  0.90536074    -0.45800
C1793       C  0.59994872  0.47084284  0.90400213    -0.05100
C1794       C  0.62005399  0.47611701  0.90073200    -0.22400
H1795       H  0.65179016  0.46492152  0.89582407     0.19400
H1796       H  0.57881974  0.40661103  0.90588866     0.18200
H1797       H  0.59786659  0.37984999  0.90323186     0.14500
H1798       H  0.63336006  0.49203001  0.89924941     0.14300
H1799       H  0.65949208  0.43093164  0.89491009     0.32500
H1800       H  0.57210290  0.44096390  0.90786868     0.35200
C1801       C  0.98572789  0.50364471  0.97322339     0.20800
C1802       C  0.97355842  0.49880280  0.96585441    -0.39000
C1803       C  0.97963003  0.48967653  0.95936842     0.19800
C1804       C  0.99647628  0.48564901  0.96016991     0.22500
C1805       C  0.00855358  0.49039935  0.96753372    -0.39500
C1806       C  0.00252664  0.49954181  0.97399610     0.21300
N1807       N  0.98382345  0.51317179  0.98018080    -0.32800
C1808       C  0.99962284  0.51522387  0.98538739    -0.10400
C1809       C  0.01148841  0.50675739  0.98175024    -0.29200
N1810       N  0.99915197  0.47705013  0.95311234    -0.45800
C1811       C  0.98387107  0.47551729  0.94775551    -0.05100
C1812       C  0.97138938  0.48326593  0.95143909    -0.22400
H1813       H  0.96050003  0.50210917  0.96518571     0.19400
H1814       H  0.02184524  0.48742871  0.96815400     0.18200
H1815       H  0.02524873  0.50645727  0.98432325     0.14500
H1816       H  0.95800594  0.48400288  0.94871342     0.14300
H1817       H  0.97283782  0.51843111  0.98122681     0.32500
H1818       H  0.01059122  0.47239172  0.95203982     0.35200
C1819       C  0.51473416  0.51968305  0.96288728     0.20800
C1820       C  0.51009104  0.52736935  0.97022086    -0.39000
C1821       C  0.50163580  0.51262412  0.97686868     0.19800
C1822       C  0.49815752  0.49182905  0.97629373     0.22500
C1823       C  0.50284071  0.48414438  0.96896283    -0.39500
C1824       C  0.51121501  0.49887374  0.96230014     0.21300
N1825       N  0.52262397  0.53042744  0.95565919    -0.32800
C1826       C  0.52415603  0.51636199  0.95041483    -0.10400
C1827       C  0.51717062  0.49651176  0.95435298    -0.29200
N1828       N  0.48945217  0.48084073  0.98341334    -0.45800
C1829       C  0.48723889  0.49470922  0.98854448    -0.05100
C1830       C  0.49475532  0.51470936  0.98467478    -0.22400
H1831       H  0.51263997  0.54356643  0.97068752     0.19400
H1832       H  0.49996925  0.46783431  0.96845175     0.18200
H1833       H  0.51653950  0.48223666  0.95176588     0.14500
H1834       H  0.49480346  0.52878643  0.98716702     0.14300
H1835       H  0.52675710  0.54635091  0.95439051     0.32500
H1836       H  0.48484278  0.46476269  0.98462247     0.35200
C1837       C  0.48589709  0.99293953  0.96294309     0.20800
C1838       C  0.48009105  0.97824734  0.96958249    -0.39000
C1839       C  0.49480603  0.98480528  0.97624063     0.19800
C1840       C  0.51391574  0.00442800  0.97630385     0.22500
C1841       C  0.51969765  0.01914427  0.96967230    -0.39500
C1842       C  0.50492936  0.01263671  0.96303370     0.21300
N1843       N  0.47449564  0.99079875  0.95596733    -0.32800
C1844       C  0.48629513  0.00938774  0.95161879    -0.10400
C1845       C  0.50538808  0.02331985  0.95583623    -0.29200
N1846       N  0.52501707  0.00683084  0.98339496    -0.45800
C1847       C  0.51281821  0.98859594  0.98789765    -0.05100
C1848       C  0.49387846  0.97453892  0.98361277    -0.22400
H1849       H  0.46513225  0.96291013  0.96960260     0.19400
H1850       H  0.53450611  0.03461699  0.96970742     0.18200
H1851       H  0.51787346  0.03929024  0.95394771     0.14500
H1852       H  0.48106134  0.95884667  0.98560854     0.14300
H1853       H  0.45943907  0.97774500  0.95436322     0.32500
H1854       H  0.53987838  0.02006625  0.98507439     0.35200
C1855       C  0.43516946  0.83172871  0.03281850     0.20800
C1856       C  0.41356669  0.81552089  0.03180809    -0.39000
C1857       C  0.40805763  0.79518762  0.03499720     0.19800
C1858       C  0.42298637  0.79121271  0.03881034     0.22500
C1859       C  0.44459606  0.80749861  0.03988754    -0.39500
C1860       C  0.45006368  0.82794116  0.03677274     0.21300
N1861       N  0.44446544  0.85225065  0.03017053    -0.32800
C1862       C  0.46542691  0.86171782  0.03248857    -0.10400
C1863       C  0.46954293  0.84710034  0.03666728    -0.29200
N1864       N  0.41379088  0.77035058  0.04105882    -0.45800
C1865       C  0.39283081  0.76107707  0.03872806    -0.05100
C1866       C  0.38863056  0.77607863  0.03495753    -0.22400
H1867       H  0.40193303  0.81849425  0.02871290     0.19400
H1868       H  0.45630246  0.80444355  0.04287132     0.18200
H1869       H  0.48479520  0.84995260  0.03911135     0.14500
H1870       H  0.37352832  0.77327622  0.03236811     0.14300
H1871       H  0.43698175  0.85932184  0.02694032     0.32500
H1872       H  0.42131078  0.76289644  0.04398981     0.35200
C1873       C  0.19443683  0.62523137  0.03834611     0.20800
C1874       C  0.17825208  0.63069641  0.03883305    -0.39000
C1875       C  0.15800800  0.61514748  0.03575963     0.19800
C1876       C  0.15422129  0.59570078  0.03241833     0.22500
C1877       C  0.17033400  0.59011772  0.03202545    -0.39500
C1878       C  0.19054108  0.60560877  0.03514949     0.21300
N1879       N  0.21528376  0.63767704  0.04043251    -0.32800
C1880       C  0.22468021  0.62582923  0.03860696    -0.10400
C1881       C  0.20974061  0.60566418  0.03536319    -0.29200
N1882       N  0.13400657  0.58426612  0.02948083    -0.45800
C1883       C  0.12483539  0.59649598  0.03097765    -0.05100
C1884       C  0.13925809  0.61580712  0.03494618    -0.22400
H1885       H  0.18132416  0.64611760  0.04124830     0.19400
H1886       H  0.16747641  0.57503751  0.02932020     0.18200
H1887       H  0.21271006  0.59310725  0.03315163     0.14500
H1888       H  0.13664501  0.62889420  0.03672453     0.14300
H1889       H  0.22271180  0.65336677  0.04283785     0.32500
H1890       H  0.12705402  0.56926075  0.02649878     0.35200
C1891       C  0.36174050  0.56614404  0.03825323     0.20800
C1892       C  0.35693564  0.54454692  0.03829220    -0.39000
C1893       C  0.37410625  0.54127939  0.03621034     0.19800
C1894       C  0.39437633  0.55824224  0.03418271     0.22500
C1895       C  0.39921266  0.57978160  0.03422445    -0.39500
C1896       C  0.38215303  0.58304559  0.03636634     0.21300
N1897       N  0.34821834  0.57357354  0.03982518    -0.32800
C1898       C  0.36022191  0.59535168  0.03899987    -0.10400
C1899       C  0.38146630  0.60184641  0.03686835    -0.29200
N1900       N  0.40764073  0.55093624  0.03204544    -0.45800
C1901       C  0.39584653  0.52914797  0.03273536    -0.05100
C1902       C  0.37485732  0.52247519  0.03539080    -0.22400
H1903       H  0.34097795  0.53127979  0.03973531     0.19400
H1904       H  0.41504799  0.59301684  0.03260759     0.18200
H1905       H  0.39456318  0.61809426  0.03569916     0.14500
H1906       H  0.36175147  0.50609479  0.03630437     0.14300
H1907       H  0.33188172  0.56441212  0.04136879     0.32500
H1908       H  0.42368325  0.56023865  0.03012295     0.35200
C1909       C  0.71111480  0.70184177  0.21032643     0.20800
C1910       C  0.70039055  0.71368358  0.21008251    -0.39000
C1911       C  0.69501056  0.71879272  0.21787027     0.19800
C1912       C  0.70020138  0.71288815  0.22534845     0.22500
C1913       C  0.71069292  0.70081882  0.22558981    -0.39500
C1914       C  0.71577616  0.69542124  0.21779963     0.21300
N1915       N  0.71695789  0.69402297  0.20379279    -0.32800
C1916       C  0.72499507  0.68217293  0.20713478    -0.10400
C1917       C  0.72456615  0.68272387  0.21584838    -0.29200
N1918       N  0.69263967  0.71905519  0.23186960    -0.45800
C1919       C  0.68219226  0.72858059  0.22850892    -0.05100
C1920       C  0.68339090  0.72875727  0.21979871    -0.22400
H1921       H  0.69603212  0.71809288  0.20425577     0.19400
H1922       H  0.71412332  0.69551366  0.23140948     0.18200
H1923       H  0.72952035  0.67447824  0.22017435     0.14500
H1924       H  0.67621971  0.73485130  0.21545073     0.14300
H1925       H  0.71472037  0.69581454  0.19746655     0.32500
H1926       H  0.69366678  0.71609759  0.23818682     0.35200
C1927       C  0.98751923  0.28210656  0.21314816     0.20800
C1928       C  0.00170153  0.27881380  0.21815322    -0.39000
C1929       C  0.01875712  0.29749798  0.22180760     0.19800
C1930       C  0.02159058  0.31783298  0.22041580     0.22500
C1931       C  0.00733499  0.32107561  0.21553183    -0.39500
C1932       C  0.99015142  0.30245675  0.21203819     0.21300
N1933       N  0.96956137  0.26705350  0.20923998    -0.32800
C1934       C  0.96060578  0.27798851  0.20580944    -0.10400
C1935       C  0.97297592  0.30004142  0.20742860    -0.29200
N1936       N  0.03886275  0.33297441  0.22453783    -0.45800
C1937       C  0.04703716  0.32232708  0.22872784    -0.05100
C1938       C  0.03491899  0.30010767  0.22721037    -0.22400
H1939       H  0.99941604  0.26288887  0.21923800     0.19400
H1940       H  0.00926449  0.33692912  0.21464507     0.18200
H1941       H  0.96960218  0.31257384  0.20560288     0.14500
H1942       H  0.03763376  0.28763540  0.22967922     0.14300
H1943       H  0.96329960  0.25035854  0.20920845     0.32500
H1944       H  0.04449607  0.34955846  0.22461868     0.35200
C1945       C  0.30052565  0.01792711  0.21430779     0.20800
C1946       C  0.28218255  0.00325512  0.21890237    -0.39000
C1947       C  0.28384556  0.98699202  0.22315804     0.19800
C1948       C  0.30226991  0.98541928  0.22273887     0.22500
C1949       C  0.32062406  0.00020713  0.21828529    -0.39500
C1950       C  0.31906181  0.01652738  0.21415158     0.21300
N1951       N  0.30327999  0.03494922  0.20976427    -0.32800
C1952       C  0.32383943  0.04453667  0.20686295    -0.10400
C1953       C  0.33414128  0.03352202  0.20948381    -0.29200
N1954       N  0.29970597  0.96825473  0.22703262    -0.45800
C1955       C  0.27959843  0.95882247  0.23032593    -0.05100
C1956       C  0.26917583  0.97010513  0.22810688    -0.22400
H1957       H  0.26772891  0.00440483  0.21914267     0.19400
H1958       H  0.33509626  0.99908224  0.21805751     0.18200
H1959       H  0.35054812  0.03752071  0.20818382     0.14500
H1960       H  0.25292427  0.96613687  0.22969382     0.14300
H1961       H  0.29216699  0.04011056  0.20890498     0.32500
H1962       H  0.31100483  0.96325136  0.22767500     0.35200
C1963       C  0.76419227  0.29690488  0.20667873     0.20800
C1964       C  0.78576654  0.30201182  0.20721323    -0.39000
C1965       C  0.79019436  0.28640620  0.20401342     0.19800
C1966       C  0.77434387  0.26723888  0.20053298     0.22500
C1967       C  0.75275239  0.26203365  0.20007762    -0.39500
C1968       C  0.74831945  0.27759020  0.20330001     0.21300
N1969       N  0.75602632  0.30946708  0.20886479    -0.32800
C1970       C  0.73480365  0.29802534  0.20687931    -0.10400
C1971       C  0.72936143  0.27798922  0.20345870    -0.29200
N1972       N  0.78282128  0.25556888  0.19758846    -0.45800
C1973       C  0.80423116  0.26734459  0.19921816    -0.05100
C1974       C  0.80944174  0.28664327  0.20326480    -0.22400
H1975       H  0.79825139  0.31719847  0.20976718     0.19400
H1976       H  0.74040051  0.24716911  0.19726329     0.18200
H1977       H  0.71382802  0.26572019  0.20110685     0.14500
H1978       H  0.82522687  0.29936430  0.20520147     0.14300
H1979       H  0.76445940  0.32500472  0.21140334     0.32500
H1980       H  0.77454489  0.24063427  0.19456564     0.35200
C1981       C  0.70763794  0.46554072  0.20933896     0.20800
C1982       C  0.70332195  0.48246136  0.21040116    -0.39000
C1983       C  0.71910130  0.50265752  0.20731431     0.19800
C1984       C  0.73760417  0.50565909  0.20337464     0.22500
C1985       C  0.74202843  0.48880724  0.20239058    -0.39500
C1986       C  0.72639247  0.46869711  0.20557293     0.21300
N1987       N  0.69497845  0.44473202  0.21152865    -0.32800
C1988       C  0.70587988  0.43464125  0.20923065    -0.10400
C1989       C  0.72557823  0.44907397  0.20552231    -0.29200
N1990       N  0.74942053  0.52600415  0.20055687    -0.45800
C1991       C  0.73845387  0.53609951  0.20275363    -0.05100
C1992       C  0.71954415  0.52211960  0.20705028    -0.22400
H1993       H  0.68863098  0.48001553  0.21331150     0.19400
H1994       H  0.75644453  0.49111806  0.19927720     0.18200
H1995       H  0.73745069  0.44557476  0.20295313     0.14500
H1996       H  0.70730308  0.52545444  0.20932321     0.14300
H1997       H  0.67986587  0.43782755  0.21440354     0.32500
H1998       H  0.76384097  0.53248414  0.19719277     0.35200
C1999       C  0.53669212  0.25517262  0.20248771     0.20800
C2000       C  0.51683704  0.25259324  0.19999475    -0.39000
C2001       C  0.49986835  0.23119447  0.19937227     0.19800
C2002       C  0.50242313  0.21372150  0.20117430     0.22500
C2003       C  0.52233552  0.21628710  0.20355795    -0.39500
C2004       C  0.53934686  0.23767567  0.20410592     0.21300
N2005       N  0.55537784  0.27381624  0.20345180    -0.32800
C2006       C  0.57005091  0.26808642  0.20558182    -0.10400
C2007       C  0.56067863  0.24570368  0.20605340    -0.29200
N2008       N  0.48376589  0.19507659  0.20019732    -0.45800
C2009       C  0.46932782  0.20075742  0.19767151    -0.05100
C2010       C  0.47875476  0.22311821  0.19705355    -0.22400
H2011       H  0.51477835  0.26622088  0.19860727     0.19400
H2012       H  0.52444795  0.20264800  0.20485058     0.18200
H2013       H  0.56845028  0.23654464  0.20756097     0.14500
H2014       H  0.47116252  0.23222351  0.19520310     0.14300
H2015       H  0.55808380  0.28941260  0.20251274     0.32500
H2016       H  0.48111294  0.17948029  0.20107632     0.35200
C2017       C  0.97983048  0.63602165  0.04469738     0.20800
C2018       C  0.98366228  0.65424353  0.04932170    -0.39000
C2019       C  0.96623882  0.65211913  0.05403394     0.19800
C2020       C  0.94648661  0.63317683  0.05426496     0.22500
C2021       C  0.94253497  0.61492175  0.04951732    -0.39500
C2022       C  0.95998185  0.61715893  0.04466813     0.21300
N2023       N  0.99408297  0.63393864  0.03993410    -0.32800
C2024       C  0.98335121  0.61370243  0.03671646    -0.10400
C2025       C  0.96191996  0.60270893  0.03946569    -0.29200
N2026       N  0.93271578  0.63542953  0.05935988    -0.45800
C2027       C  0.94379037  0.65607458  0.06224850    -0.05100
C2028       C  0.96470416  0.66690569  0.05904045    -0.22400
H2029       H  0.99915112  0.66903086  0.04926783     0.19400
H2030       H  0.92708470  0.60009931  0.04960601     0.18200
H2031       H  0.94972828  0.58617238  0.03811694     0.14500
H2032       H  0.97714864  0.68346007  0.06020295     0.14300
H2033       H  0.01027146  0.64556710  0.03899173     0.32500
H2034       H  0.91667994  0.62387596  0.06062637     0.35200
C2035       C  0.83136448  0.67130226  0.12660611     0.20800
C2036       C  0.82247704  0.67830885  0.13284162    -0.39000
C2037       C  0.81405514  0.66480524  0.13982803     0.19800
C2038       C  0.81455669  0.64582548  0.14055461     0.22500
C2039       C  0.82341281  0.63878427  0.13430030    -0.39500
C2040       C  0.83179942  0.65228180  0.12729067     0.21300
N2041       N  0.84059175  0.68141673  0.11943088    -0.32800
C2042       C  0.84702501  0.66883366  0.11547347    -0.10400
C2043       C  0.84177843  0.65044614  0.12018602    -0.29200
N2044       N  0.80587740  0.63610007  0.14786300    -0.45800
C2045       C  0.79973327  0.64892680  0.15181470    -0.05100
C2046       C  0.80452470  0.66697675  0.14697906    -0.22400
H2047       H  0.82224296  0.69324527  0.13230774     0.19400
H2048       H  0.82385755  0.62396712  0.13487600     0.18200
H2049       H  0.84500385  0.63761507  0.11866804     0.14500
H2050       H  0.80171815  0.68006704  0.14853313     0.14300
H2051       H  0.84251288  0.69612903  0.11740888     0.32500
H2052       H  0.80428888  0.62162611  0.15002196     0.35200
C2053       C  0.32461733  0.16351603  0.12812056     0.20800
C2054       C  0.31679775  0.14781068  0.13444533    -0.39000
C2055       C  0.32897400  0.15356116  0.14180962     0.19800
C2056       C  0.34750327  0.17345287  0.14277527     0.22500
C2057       C  0.35534973  0.18915702  0.13644250    -0.39500
C2058       C  0.34316587  0.18340046  0.12907154     0.21300
N2059       N  0.31570293  0.16210221  0.12062511    -0.32800
C2060       C  0.32857111  0.18122334  0.11674406    -0.10400
C2061       C  0.34596558  0.19493822  0.12181335    -0.29200
N2062       N  0.35612467  0.17500673  0.15034896    -0.45800
C2063       C  0.34305509  0.15596531  0.15425178    -0.05100
C2064       C  0.32590042  0.14214816  0.14911502    -0.22400
H2065       H  0.30224046  0.13229551  0.13369699     0.19400
H2066       H  0.36980946  0.20473941  0.13721800     0.18200
H2067       H  0.35866317  0.21125176  0.12045091     0.14500
H2068       H  0.31301340  0.12594750  0.15051086     0.14300
H2069       H  0.30150922  0.14895543  0.11836080     0.32500
H2070       H  0.37015568  0.18823751  0.15267583     0.35200
C2071       C  0.37188530  0.32074568  0.05723415     0.20800
C2072       C  0.39120889  0.33629531  0.05336095    -0.39000
C2073       C  0.38944622  0.35070072  0.04787921     0.19800
C2074       C  0.36995409  0.34973076  0.04650493     0.22500
C2075       C  0.35074288  0.33417795  0.05029111    -0.39500
C2076       C  0.35246779  0.31973568  0.05565088     0.21300
N2077       N  0.36897989  0.30498102  0.06259402    -0.32800
C2078       C  0.34750375  0.29375640  0.06429509    -0.10400
C2079       C  0.33677981  0.30259264  0.06009089    -0.29200
N2080       N  0.37251944  0.36577989  0.04147358    -0.45800
C2081       C  0.39376177  0.37716477  0.03952749    -0.05100
C2082       C  0.40491749  0.36813997  0.04332768    -0.22400
H2083       H  0.40645726  0.33717097  0.05455090     0.19400
H2084       H  0.33552665  0.33343857  0.04916758     0.18200
H2085       H  0.31969549  0.29704081  0.06017631     0.14500
H2086       H  0.42210325  0.37422303  0.04317217     0.14300
H2087       H  0.38072302  0.30167924  0.06475972     0.32500
H2088       H  0.36056411  0.36913827  0.03963833     0.35200
C2089       C  0.81927148  0.15035487  0.12975982     0.20800
C2090       C  0.81185290  0.15578441  0.13697192    -0.39000
C2091       C  0.82727030  0.16648711  0.14325154     0.19800
C2092       C  0.84846425  0.17140427  0.14243715     0.22500
C2093       C  0.85590403  0.16602873  0.13521135    -0.39500
C2094       C  0.84047726  0.15532136  0.12892703     0.21300
N2095       N  0.80781978  0.14014509  0.12290225    -0.32800
C2096       C  0.82183947  0.13860679  0.11764763    -0.10400
C2097       C  0.84236081  0.14788795  0.12120525    -0.29200
N2098       N  0.85985951  0.18151009  0.14932297    -0.45800
C2099       C  0.84580518  0.18306599  0.15455567    -0.05100
C2100       C  0.82534294  0.17390014  0.15096402    -0.22400
H2101       H  0.79528918  0.15194553  0.13764983     0.19400
H2102       H  0.87246753  0.16986655  0.13453429     0.18200
H2103       H  0.85676505  0.14909124  0.11850985     0.14500
H2104       H  0.81093784  0.17274886  0.15363512     0.14300
H2105       H  0.79149118  0.13458514  0.12187146     0.32500
H2106       H  0.87618247  0.18707687  0.15037187     0.35200
C2107       C  0.64920528  0.01162252  0.04908023     0.20800
C2108       C  0.66416682  0.00804270  0.05331621    -0.39000
C2109       C  0.68048780  0.02591741  0.05754855     0.19800
C2110       C  0.68167314  0.04581009  0.05770170     0.22500
C2111       C  0.66688865  0.04950933  0.05330901    -0.39500
C2112       C  0.65068942  0.03164854  0.04893631     0.21300
N2113       N  0.63200750  0.99707525  0.04473594    -0.32800
C2114       C  0.62255307  0.00787141  0.04166155    -0.10400
C2115       C  0.63380660  0.02955636  0.04409165    -0.29200
N2116       N  0.69874187  0.06010393  0.06224476    -0.45800
C2117       C  0.70862274  0.04924227  0.06482333    -0.05100
C2118       C  0.69775168  0.02794661  0.06199728    -0.22400
H2119       H  0.66319968  0.99246936  0.05329871     0.19400
H2120       H  0.66794261  0.06511792  0.05328313     0.18200
H2121       H  0.62979645  0.04189497  0.04271823     0.14500
H2122       H  0.70209475  0.01568282  0.06298623     0.14300
H2123       H  0.62699520  0.98074329  0.04390558     0.32500
H2124       H  0.70383032  0.07638934  0.06325837     0.35200
C2125       C  0.90662151  0.03474503  0.06229997     0.20800
C2126       C  0.88482973  0.02898415  0.06229183    -0.39000
C2127       C  0.88057015  0.04514375  0.06493095     0.19800
C2128       C  0.89676656  0.06537885  0.06745660     0.22500
C2129       C  0.91854880  0.07123284  0.06734236    -0.39500
C2130       C  0.92281608  0.05516515  0.06463716     0.21300
N2131       N  0.91482913  0.02199878  0.06051173    -0.32800
C2132       C  0.93638919  0.03449315  0.06166979    -0.10400
C2133       C  0.94200110  0.05531568  0.06417304    -0.29200
N2134       N  0.88845723  0.07737542  0.07018308    -0.45800
C2135       C  0.86683233  0.06476419  0.06932455    -0.05100
C2136       C  0.86126805  0.04459535  0.06600741    -0.22400
H2137       H  0.87211281  0.01297684  0.06054558     0.19400
H2138       H  0.93119650  0.08697124  0.06939239     0.18200
H2139       H  0.95786143  0.06851303  0.06576704     0.14500
H2140       H  0.84525315  0.03109734  0.06485090     0.14300
H2141       H  0.90627079  0.00575047  0.05874635     0.32500
H2142       H  0.89696284  0.09306151  0.07258342     0.35200
C2143       C  0.17017247  0.12439084  0.06656904     0.20800
C2144       C  0.15064149  0.12145735  0.06345501    -0.39000
C2145       C  0.13387327  0.09995838  0.06279478     0.19800
C2146       C  0.13645523  0.08270530  0.06496593     0.22500
C2147       C  0.15595095  0.08563465  0.06810665    -0.39500
C2148       C  0.17262412  0.10713752  0.06887190     0.21300
N2149       N  0.18820083  0.14322917  0.06818026    -0.32800
C2150       C  0.20209305  0.13790781  0.07163907    -0.10400
C2151       C  0.19298695  0.11555287  0.07215401    -0.29200
N2152       N  0.11781879  0.06396285  0.06414563    -0.45800
C2153       C  0.10319903  0.06934727  0.06155140    -0.05100
C2154       C  0.11262186  0.09163944  0.06058815    -0.22400
H2155       H  0.14848223  0.13493154  0.06188868     0.19400
H2156       H  0.15780429  0.07219494  0.07003692     0.18200
H2157       H  0.20015216  0.10666466  0.07471212     0.14500
H2158       H  0.10483765  0.10059752  0.05878949     0.14300
H2159       H  0.19063878  0.15872363  0.06723436     0.32500
H2160       H  0.11505023  0.04856862  0.06560359     0.35200
C2161       C  0.95068016  0.86895179  0.06857496     0.20800
C2162       C  0.93364879  0.84950041  0.07166778    -0.39000
C2163       C  0.93777423  0.83241159  0.07226946     0.19800
C2164       C  0.95730646  0.83450149  0.06991118     0.22500
C2165       C  0.97441226  0.85402235  0.06688851    -0.39500
C2166       C  0.97033575  0.87116043  0.06633943     0.21300
N2167       N  0.95089277  0.88761886  0.06750163    -0.32800
C2168       C  0.97089365  0.90187871  0.06464067    -0.10400
C2169       C  0.98350278  0.89222454  0.06382752    -0.29200
N2170       N  0.95707833  0.81581913  0.07100912    -0.45800
C2171       C  0.93731846  0.80179522  0.07414611    -0.05100
C2172       C  0.92483286  0.81156533  0.07504434    -0.22400
H2173       H  0.91835212  0.84782451  0.07349685     0.19400
H2174       H  0.98977117  0.85575412  0.06512493     0.18200
H2175       H  0.00008339  0.89963825  0.06174934     0.14500
H2176       H  0.90846200  0.80436168  0.07735148     0.14300
H2177       H  0.93833253  0.89055288  0.06880435     0.32500
H2178       H  0.96965384  0.81286841  0.06976329     0.35200
C2179       C  0.70086304  0.99323246  0.72606553     0.20800
C2180       C  0.71280558  0.01593496  0.72626422    -0.39000
C2181       C  0.71684495  0.02632724  0.71847955     0.19800
C2182       C  0.70988697  0.01498929  0.71104385     0.22500
C2183       C  0.69764509  0.99230382  0.71085765    -0.39500
C2184       C  0.69328795  0.98193143  0.71864974     0.21300
N2185       N  0.69411837  0.97961785  0.73262516    -0.32800
C2186       C  0.68177565  0.95954503  0.72937162    -0.10400
C2187       C  0.68090678  0.96035442  0.72067772    -0.29200
N2188       N  0.71548715  0.02863261  0.70451913    -0.45800
C2189       C  0.72569058  0.04881475  0.70783200    -0.05100
C2190       C  0.72682959  0.04801022  0.71652219    -0.22400
H2191       H  0.71815885  0.02486654  0.73206659     0.19400
H2192       H  0.69155766  0.98339427  0.70508334     0.18200
H2193       H  0.67203214  0.94697720  0.71642737     0.14500
H2194       H  0.73373407  0.06148830  0.72083607     0.14300
H2195       H  0.69695685  0.98378328  0.73893912     0.32500
H2196       H  0.71184296  0.02447398  0.69823546     0.35200
C2197       C  0.29130686  0.30501937  0.72557230     0.20800
C2198       C  0.30238076  0.29353899  0.72587981    -0.39000
C2199       C  0.30731834  0.28786643  0.71812756     0.19800
C2200       C  0.30125033  0.29278312  0.71062704     0.22500
C2201       C  0.29044575  0.30455602  0.71031466    -0.39500
C2202       C  0.28591788  0.31064072  0.71807280     0.21300
N2203       N  0.28566708  0.31311583  0.73206136    -0.32800
C2204       C  0.27705054  0.32438175  0.72867559    -0.10400
C2205       C  0.27691546  0.32320481  0.71996486    -0.29200
N2206       N  0.30833313  0.28602751  0.70413836    -0.45800
C2207       C  0.31942911  0.27723718  0.70754064    -0.05100
C2208       C  0.31913827  0.27808226  0.71624277    -0.22400
H2209       H  0.30729700  0.28979418  0.73172413     0.19400
H2210       H  0.28636359  0.30912262  0.70446193     0.18200
H2211       H  0.27131689  0.33081966  0.71560692     0.14500
H2212       H  0.32690459  0.27264556  0.72059457     0.14300
H2213       H  0.28829885  0.31178966  0.73838870     0.32500
H2214       H  0.30657850  0.28812924  0.69779489     0.35200
C2215       C  0.01041219  0.71159833  0.72612840     0.20800
C2216       C  0.98778395  0.69914743  0.72625968    -0.39000
C2217       C  0.97750725  0.69572865  0.71848495     0.19800
C2218       C  0.98883696  0.70429020  0.71113991     0.22500
C2219       C  0.01149155  0.71641476  0.71098935    -0.39500
C2220       C  0.02178825  0.71958459  0.71875087     0.21300
N2221       N  0.02396915  0.71666025  0.73264281    -0.32800
C2222       C  0.04413639  0.72757523  0.72936864    -0.10400
C2223       C  0.04341176  0.72968471  0.72072424    -0.29200
N2224       N  0.97528745  0.69851568  0.70458488    -0.45800
C2225       C  0.95520410  0.68585919  0.70776232    -0.05100
C2226       C  0.95598094  0.68375680  0.71640835    -0.22400
H2227       H  0.97884163  0.69234757  0.73197877     0.19400
H2228       H  0.02046156  0.72264809  0.70523598     0.18200
H2229       H  0.05691403  0.73732458  0.71644711     0.14500
H2230       H  0.94259231  0.67445922  0.72060102     0.14300
H2231       H  0.01978449  0.71225269  0.73887832     0.32500
H2232       H  0.97948723  0.70231257  0.69831102     0.35200
C2233       C  0.46906075  0.74591843  0.73091056     0.20800
C2234       C  0.48849976  0.74818633  0.73384974    -0.39000
C2235       C  0.50642630  0.76916991  0.73353858     0.19800
C2236       C  0.50514868  0.78646673  0.73039005     0.22500
C2237       C  0.48570028  0.78421708  0.72749393    -0.39500
C2238       C  0.46770694  0.76332937  0.72794824     0.21300
N2239       N  0.44949878  0.72797906  0.73103161    -0.32800
C2240       C  0.43555095  0.73410294  0.72827025    -0.10400
C2241       C  0.44631542  0.75601895  0.72625511    -0.29200
N2242       N  0.52414356  0.80489074  0.73115305    -0.45800
C2243       C  0.53752561  0.79939143  0.73495569    -0.05100
C2244       C  0.52709499  0.77722036  0.73650811    -0.22400
H2245       H  0.48943275  0.73475301  0.73644857     0.19400
H2246       H  0.48452166  0.79786999  0.72531404     0.18200
H2247       H  0.43937053  0.76543549  0.72404162     0.14500
H2248       H  0.53353978  0.76832295  0.73963045     0.14300
H2249       H  0.44576281  0.71272145  0.73317639     0.32500
H2250       H  0.52747705  0.82039613  0.72954561     0.35200
C2251       C  0.25764830  0.72813723  0.73105905     0.20800
C2252       C  0.25460785  0.74415086  0.73475405    -0.39000
C2253       C  0.23413339  0.74169018  0.73371053     0.19800
C2254       C  0.21792410  0.72469068  0.72926398     0.22500
C2255       C  0.22088484  0.70848393  0.72564599    -0.39500
C2256       C  0.24135225  0.71083626  0.72676113     0.21300
N2257       N  0.27550979  0.72660971  0.73132793    -0.32800
C2258       C  0.27049989  0.70804983  0.72727639    -0.10400
C2259       C  0.24932627  0.69770964  0.72434522    -0.29200
N2260       N  0.19975122  0.72575754  0.72941390    -0.45800
C2261       C  0.20441003  0.74337923  0.73410053    -0.05100
C2262       C  0.22571052  0.75375084  0.73685362    -0.22400
H2263       H  0.26715929  0.75736991  0.73830053     0.19400
H2264       H  0.20811038  0.69488176  0.72233445     0.18200
H2265       H  0.24089141  0.68258619  0.72096441     0.14500
H2266       H  0.23378259  0.76787062  0.74082354     0.14300
H2267       H  0.29001249  0.73722849  0.73429222     0.32500
H2268       H  0.18489641  0.71470805  0.72679013     0.35200
C2269       C  0.27369561  0.53584477  0.73090392     0.20800
C2270       C  0.25643152  0.51628449  0.73387135    -0.39000
C2271       C  0.25924454  0.49828477  0.73333667     0.19800
C2272       C  0.27770309  0.49966283  0.72999099     0.22500
C2273       C  0.29502853  0.51923339  0.72712911    -0.39500
C2274       C  0.29234923  0.53724431  0.72776908     0.21300
N2275       N  0.27532345  0.55538238  0.73092585    -0.32800
C2276       C  0.29528741  0.56931578  0.72791189    -0.10400
C2277       C  0.30637729  0.55860255  0.72588034    -0.29200
N2278       N  0.27671626  0.48047107  0.73034905    -0.45800
C2279       C  0.25766642  0.46679175  0.73407864    -0.05100
C2280       C  0.24626410  0.47728843  0.73602739    -0.22400
H2281       H  0.24206125  0.51524175  0.73653395     0.19400
H2282       H  0.30969063  0.52042031  0.72472055     0.18200
H2283       H  0.32257854  0.56553649  0.72341576     0.14500
H2284       H  0.23082640  0.47059815  0.73915495     0.14300
H2285       H  0.26382351  0.55910297  0.73307723     0.32500
H2286       H  0.28867877  0.47712586  0.72847170     0.35200
C2287       C  0.66345625  0.82433769  0.80828545     0.20800
C2288       C  0.65056738  0.81675491  0.80111485    -0.39000
C2289       C  0.65557290  0.83201086  0.79475929     0.19800
C2290       C  0.67214105  0.85322606  0.79545993     0.22500
C2291       C  0.68512600  0.86079980  0.80262347    -0.39500
C2292       C  0.68011015  0.84551696  0.80899122     0.21300
N2293       N  0.66180397  0.81308859  0.81523318    -0.32800
C2294       C  0.67755337  0.82718823  0.82041218    -0.10400
C2295       C  0.68932785  0.84756864  0.81672061    -0.29200
N2296       N  0.67329262  0.86455770  0.78858823    -0.45800
C2297       C  0.65732107  0.85040097  0.78348608    -0.05100
C2298       C  0.64599318  0.82995256  0.78712870    -0.22400
H2299       H  0.63749726  0.80022260  0.80054622     0.19400
H2300       H  0.69807380  0.87738131  0.80322055     0.18200
H2301       H  0.70278831  0.86198636  0.81933883     0.14500
H2302       H  0.63238334  0.81552585  0.78459081     0.14300
H2303       H  0.65069103  0.79681893  0.81635867     0.32500
H2304       H  0.68414633  0.88090021  0.78747481     0.35200
C2305       C  0.65121656  0.68564100  0.87995019     0.20800
C2306       C  0.65414562  0.67034158  0.88427002    -0.39000
C2307       C  0.63641111  0.65512388  0.88890626     0.19800
C2308       C  0.61720035  0.65520039  0.88934994     0.22500
C2309       C  0.61415624  0.67043395  0.88490866    -0.39500
C2310       C  0.63191444  0.68558444  0.88013973     0.21300
N2311       N  0.66582621  0.70188244  0.87520917    -0.32800
C2312       C  0.65586471  0.71227128  0.87222606    -0.10400
C2313       C  0.63458403  0.70250833  0.87511691    -0.29200
N2314       N  0.60284858  0.63880246  0.89420298    -0.45800
C2315       C  0.61300596  0.62810624  0.89670557    -0.05100
C2316       C  0.63391750  0.63786397  0.89351590    -0.22400
H2317       H  0.66915507  0.67022959  0.88400548     0.19400
H2318       H  0.59909209  0.67043721  0.88511856     0.18200
H2319       H  0.62290483  0.70748443  0.87390426     0.14500
H2320       H  0.64566413  0.63279574  0.89436491     0.14300
H2321       H  0.68169318  0.70568291  0.87407524     0.32500
H2322       H  0.58695601  0.63468619  0.89548358     0.35200
C2323       C  0.03026746  0.34560465  0.88048412     0.20800
C2324       C  0.01205397  0.34062627  0.88532237    -0.39000
C2325       C  0.01287684  0.35787245  0.88976564     0.19800
C2326       C  0.03065213  0.37851904  0.88955733     0.22500
C2327       C  0.04889415  0.38357441  0.88461846    -0.39500
C2328       C  0.04792391  0.36629413  0.88002807     0.21300
N2329       N  0.03335740  0.33186267  0.87579936    -0.32800
C2330       C  0.05303765  0.34373100  0.87222012    -0.10400
C2331       C  0.06264323  0.36540415  0.87464735    -0.29200
N2332       N  0.02710976  0.39205362  0.89427720    -0.45800
C2333       C  0.00678054  0.37993030  0.89733764    -0.05100
C2334       C  0.99746821  0.35855640  0.89466663    -0.22400
H2335       H  0.99813895  0.32449128  0.88554824     0.19400
H2336       H  0.06270781  0.39975659  0.88432010     0.18200
H2337       H  0.07848184  0.37849828  0.87295294     0.14500
H2338       H  0.98137934  0.34537158  0.89599423     0.14300
H2339       H  0.02270879  0.31528596  0.87512590     0.32500
H2340       H  0.03747485  0.40863898  0.89508106     0.35200
C2341       C  0.18357844  0.33543174  0.79538147     0.20800
C2342       C  0.17893217  0.32298730  0.80267107    -0.55800
C2343       C  0.16798994  0.32735843  0.80897060     0.19800
C2344       C  0.16212928  0.34292728  0.80809133     0.22500
C2345       C  0.16672190  0.35532228  0.80079883    -0.39500
C2346       C  0.17763632  0.35093881  0.79450200     0.21300
N2347       N  0.19397476  0.33455335  0.78850962    -0.32800
C2348       C  0.19462720  0.34961654  0.78321528    -0.10400
C2349       C  0.18455319  0.36011156  0.78674440    -0.29200
N2350       N  0.15187066  0.34395058  0.81497289    -0.45800
C2351       C  0.15114465  0.32888170  0.82027835    -0.05100
C2352       C  0.16105002  0.31821805  0.81674231    -0.22400
H2353       H  0.18351398  0.31082031  0.80339154     0.19400
H2354       H  0.16215780  0.36750368  0.80008111     0.18200
H2355       H  0.18267156  0.37288266  0.78403811     0.14500
H2356       H  0.16286883  0.30542531  0.81946574     0.14300
H2357       H  0.20027528  0.32439811  0.78750460     0.32500
H2358       H  0.14563699  0.35416808  0.81596412     0.35200
C2359       C  0.17697740  0.82763365  0.81102926     0.20800
C2360       C  0.18386519  0.82165990  0.80381920    -0.39000
C2361       C  0.16839572  0.81175999  0.79750421     0.19800
C2362       C  0.14755922  0.80793118  0.79828776     0.22500
C2363       C  0.14063402  0.81389470  0.80552289    -0.39500
C2364       C  0.15619068  0.82394975  0.81183719     0.21300
N2365       N  0.18896852  0.83828098  0.81771870    -0.32800
C2366       C  0.17582867  0.84162353  0.82282359    -0.10400
C2367       C  0.15519996  0.83278890  0.81937976    -0.29200
N2368       N  0.13626194  0.79900621  0.79124039    -0.45800
C2369       C  0.15010373  0.79729325  0.78592607    -0.05100
C2370       C  0.17024427  0.80502076  0.78965198    -0.22400
H2371       H  0.20023629  0.82493199  0.80309760     0.19400
H2372       H  0.12449758  0.81135451  0.80611661     0.18200
H2373       H  0.14149577  0.83332047  0.82192560     0.14500
H2374       H  0.18452718  0.80600317  0.78693395     0.14300
H2375       H  0.20529044  0.84357246  0.81861383     0.32500
H2376       H  0.12031419  0.79479264  0.79006196     0.35200
C2377       C  0.32602258  0.94757342  0.87772103     0.20800
C2378       C  0.33932996  0.94267335  0.88259769    -0.39000
C2379       C  0.35634477  0.96024119  0.88683980     0.19800
C2380       C  0.35988742  0.98103338  0.88612374     0.22500
C2381       C  0.34644124  0.98583365  0.88139947    -0.39500
C2382       C  0.32936754  0.96833004  0.87728814     0.21300
N2383       N  0.30853174  0.93385255  0.87321657    -0.32800
C2384       C  0.30054483  0.94598151  0.87006342    -0.10400
C2385       C  0.31314798  0.96753341  0.87247382    -0.29200
N2386       N  0.37746891  0.99506557  0.89041182    -0.45800
C2387       C  0.38520147  0.98328462  0.89403039    -0.05100
C2388       C  0.37236497  0.96138050  0.89201425    -0.22400
H2389       H  0.33662228  0.92642378  0.88306399     0.19400
H2390       H  0.34907412  0.00206462  0.88096943     0.18200
H2391       H  0.31053735  0.98078567  0.87102386     0.14500
H2392       H  0.37486448  0.94827010  0.89383020     0.14300
H2393       H  0.30193466  0.91717554  0.87260507     0.32500
H2394       H  0.38391126  0.01176189  0.89083035     0.35200
C2395       C  0.10448569  0.97016865  0.87014802     0.20800
C2396       C  0.12655695  0.97699301  0.86948644    -0.39000
C2397       C  0.13145698  0.96057784  0.86804312     0.19800
C2398       C  0.11551618  0.93911467  0.86725558     0.22500
C2399       C  0.09353800  0.93230821  0.86797645    -0.39500
C2400       C  0.08866621  0.94864633  0.86946074     0.21300
N2401       N  0.09553987  0.98257719  0.87124569    -0.32800
C2402       C  0.07388582  0.96883322  0.87126454    -0.10400
C2403       C  0.06900523  0.94751612  0.87019759    -0.29200
N2404       N  0.12411868  0.92676647  0.86544376    -0.45800
C2405       C  0.14572584  0.94033114  0.86509782    -0.05100
C2406       C  0.15101299  0.96159630  0.86675993    -0.22400
H2407       H  0.13895045  0.99384374  0.86992575     0.19400
H2408       H  0.08111399  0.91553673  0.86727989     0.18200
H2409       H  0.05321671  0.93316524  0.86983203     0.14500
H2410       H  0.16686888  0.97591237  0.86667826     0.14300
H2411       H  0.10369358  0.99938242  0.87183120     0.32500
H2412       H  0.11572070  0.91011564  0.86436602     0.35200
C2413       C  0.04013412  0.13165249  0.86987757     0.20800
C2414       C  0.03486091  0.14796637  0.87069707    -0.39000
C2415       C  0.05118207  0.16883416  0.86847805     0.19800
C2416       C  0.07115909  0.17306083  0.86562651     0.22500
C2417       C  0.07649952  0.15679874  0.86488823    -0.39500
C2418       C  0.06023631  0.13597320  0.86714916     0.21300
N2419       N  0.02731898  0.11044916  0.87139832    -0.32800
C2420       C  0.03941977  0.10124578  0.86970303    -0.10400
C2421       C  0.06006788  0.11666217  0.86705264    -0.29200
N2422       N  0.08346199  0.19394398  0.86351439    -0.45800
C2423       C  0.07127042  0.20313223  0.86502798    -0.05100
C2424       C  0.05107576  0.18801496  0.86820098    -0.22400
H2425       H  0.01911725  0.14460569  0.87278794     0.19400
H2426       H  0.09207074  0.16007324  0.86260965     0.18200
H2427       H  0.07309011  0.11405610  0.86519720     0.14500
H2428       H  0.03783075  0.19051695  0.86978754     0.14300
H2429       H  0.01137129  0.10275071  0.87350327     0.32500
H2430       H  0.09903798  0.20135336  0.86102948     0.35200
C2431       C  0.87466292  0.90425415  0.86979514     0.20800
C2432       C  0.85837689  0.88243958  0.86940616    -0.39000
C2433       C  0.83776308  0.87860009  0.86732939     0.19800
C2434       C  0.83375973  0.89522599  0.86570628     0.22500
C2435       C  0.84997784  0.91701172  0.86617033    -0.39500
C2436       C  0.87053221  0.92084396  0.86829517     0.21300
N2437       N  0.89571816  0.91218188  0.87135695    -0.32800
C2438       C  0.90502065  0.93397438  0.87087522    -0.10400
C2439       C  0.88978767  0.93997523  0.86902022    -0.29200
N2440       N  0.81309108  0.88736374  0.86352651    -0.45800
C2441       C  0.80380033  0.86556673  0.86380455    -0.05100
C2442       C  0.81863714  0.85946083  0.86620055    -0.22400
H2443       H  0.86157846  0.86942552  0.87052018     0.19400
H2444       H  0.84688516  0.93001323  0.86485217     0.18200
H2445       H  0.89250387  0.95611958  0.86810422     0.14500
H2446       H  0.81594712  0.84324369  0.86680605     0.14300
H2447       H  0.90329793  0.90329379  0.87257619     0.32500
H2448       H  0.80581911  0.89630500  0.86188956     0.35200
loop_ 
_geom_bond_atom_site_label_1 
_geom_bond_atom_site_label_2 
_geom_bond_distance 
_geom_bond_site_symmetry_2 
_ccdc_geom_bond_type 
N1            N2   1.323       .  A
N1            C5   1.344       .  A
N1           Cu9   2.073   1_565  S
N2            C3   1.347       .  A
N2           Cu8   2.084       .  S
C3            C4   1.385       .  A
C3            H6   1.082       .  S
C4            C5   1.382       .  A
C4         C2438   1.474       .  S
C5            H7   1.082       .  S
Cu8          N11   2.084   1_655  S
Cu9          N19   2.073   1_655  S
Cu10         N12   2.072   1_545  S
Cu10         N18   2.073       .  S
N11          N12   1.323       .  A
N11          C15   1.347       .  A
N12          C13   1.345       .  A
C13          C14   1.382       .  A
C13          H16   1.082   1_565  S
C14          C15   1.387       .  A
C14        C2402   1.476       .  S
C15          H17   1.082       .  S
N18          N19   1.321       .  A
N18          C22   1.345       .  A
N19          C20   1.346       .  A
C20          C21   1.384       .  A
C20          H23   1.082   1_455  S
C21          C22   1.384       .  A
C21        C2420   1.473       .  S
C22          H24   1.082       .  S
N25          N26   1.322       .  A
N25          C29   1.350       .  A
N25         Cu33   2.101       .  S
N26          C27   1.344       .  A
N26         Cu32   2.064       .  S
C27          C28   1.381       .  A
C27          H30   1.082       .  S
C28          C29   1.390       .  A
C28        C2366   1.480       .  S
C29          H31   1.082       .  S
Cu32         N35   2.064       .  S
Cu33         N43   2.101       .  S
Cu34         N36   2.081       .  S
Cu34         N42   2.082       .  S
N35          N36   1.321       .  A
N35          C39   1.342       .  A
N36          C37   1.349       .  A
C37          C38   1.387       .  A
C37          H40   1.082       .  S
C38          C39   1.381       .  A
C38        C2405   1.473       .  S
C39          H41   1.082       .  S
N42          N43   1.325       .  A
N42          C46   1.343       .  A
N43          C44   1.352       .  A
C44          C45   1.388       .  A
C44          H47   1.082       .  S
C45          C46   1.381       .  A
C45        C2384   1.478       .  S
C46          H48   1.082       .  S
N49          N50   1.324       .  A
N49          C53   1.350       .  A
N49         Cu57   2.100       .  S
N50          C51   1.343       .  A
N50         Cu56   2.068       .  S
C51          C52   1.380       .  A
C51          H54   1.082       .  S
C52          C53   1.389       .  A
C52        C2351   1.478       .  S
C53          H55   1.082       .  S
Cu56         N59   2.067       .  S
Cu57         N67   2.100       .  S
Cu58         N60   2.068       .  S
Cu58         N66   2.068       .  S
N59          N60   1.320       .  A
N59          C63   1.344       .  A
N60          C61   1.345       .  A
C61          C62   1.385       .  A
C61          H64   1.082       .  S
C62          C63   1.384       .  A
C62        C2423   1.473       .  S
C63          H65   1.082       .  S
N66          N67   1.323       .  A
N66          C70   1.340       .  A
N67          C68   1.353       .  A
C68          C69   1.390       .  A
C68          H71   1.082       .  S
C69          C70   1.379       .  A
C69        C2330   1.477       .  S
C70          H72   1.082       .  S
N73          N74   1.323       .  A
N73          C77   1.350       .  A
N73         Cu81   2.100       .  S
N74          C75   1.342       .  A
N74         Cu80   2.063       .  S
C75          C76   1.380       .  A
C75          H78   1.082       .  S
C76          C77   1.389       .  A
C76        C2294   1.477       .  S
C77          H79   1.082       .  S
Cu80         N83   2.062       .  S
Cu81         N91   2.100       .  S
Cu82         N84   2.073       .  S
Cu82         N90   2.073       .  S
N83          N84   1.320       .  A
N83          C87   1.344       .  A
N84          C85   1.346       .  A
C85          C86   1.385       .  A
C85          H88   1.082       .  S
C86          C87   1.382       .  A
C86        C2441   1.472       .  S
C87          H89   1.082       .  S
N90          N91   1.324       .  A
N90          C94   1.343       .  A
N91          C92   1.352       .  A
C92          C93   1.389       .  A
C92          H95   1.082       .  S
C93          C94   1.381       .  A
C93        C2312   1.479       .  S
C94          H96   1.082       .  S
N97          N98   1.323       .  A
N97         C101   1.345       .  A
N97        Cu105   2.070       .  S
N98          C99   1.345       .  A
N98        Cu104   2.076       .  S
C99         C100   1.383       .  A
C99         H102   1.082       .  S
C100        C101   1.381       .  A
C100       C2258   1.470       .  S
C101        H103   1.082       .  S
Cu104       N107   2.076       .  S
Cu105       N115   2.071       .  S
Cu106       N108   2.077       .  S
Cu106       N114   2.077       .  S
N107        N108   1.323       .  A
N107        C111   1.346       .  A
N108        C109   1.345       .  A
C109        C110   1.383       .  A
C109        H112   1.082       .  S
C110        C111   1.384       .  A
C110       C2240   1.473       .  S
C111        H113   1.082       .  S
N114        N115   1.322       .  A
N114        C118   1.345       .  A
N115        C116   1.346       .  A
C116        C117   1.382       .  A
C116        H119   1.082       .  S
C117        C118   1.384       .  A
C117       C2276   1.472       .  S
C118        H120   1.082       .  S
N121        N122   1.323       .  A
N121        C125   1.353       .  A
N121       Cu129   2.106       .  S
N122        C123   1.342       .  A
N122       Cu128   2.064       .  S
C123        C124   1.381       .  A
C123        H126   1.082       .  S
C124        C125   1.391       .  A
C124       C2369   1.482       .  S
C125        H127   1.082       .  S
Cu128       N131   2.063       .  S
Cu129       N139   2.107       .  S
Cu130       N132   2.074       .  S
Cu130       N138   2.076       .  S
N131        N132   1.320       .  A
N131        C135   1.342       .  A
N132        C133   1.347       .  A
C133        C134   1.385       .  A
C133        H136   1.082       .  S
C134        C135   1.382       .  A
C134       C2261   1.472       .  S
C135        H137   1.082       .  S
N138        N139   1.325       .  A
N138        C142   1.344       .  A
N139        C140   1.352       .  A
C140        C141   1.388       .  A
C140        H143   1.082       .  S
C141        C142   1.380       .  A
C141       C2222   1.479       .  S
C142        H144   1.082       .  S
N145        N146   1.323       .  A
N145        C149   1.351       .  A
N145       Cu153   2.097       .  S
N146        C147   1.341       .  A
N146       Cu152   2.066       .  S
C147        C148   1.380       .  A
C147        H150   1.082       .  S
C148        C149   1.389       .  A
C148       C2348   1.478       .  S
C149        H151   1.082       .  S
Cu152       N155   2.065       .  S
Cu153       N163   2.097       .  S
Cu154       N156   2.074       .  S
Cu154       N162   2.075       .  S
N155        N156   1.320       .  A
N155        C159   1.345       .  A
N156        C157   1.345       .  A
C157        C158   1.385       .  A
C157        H160   1.082       .  S
C158        C159   1.383       .  A
C158       C2279   1.473       .  S
C159        H161   1.082       .  S
N162        N163   1.324       .  A
N162        C166   1.344       .  A
N163        C164   1.350       .  A
C164        C165   1.387       .  A
C164        H167   1.082       .  S
C165        C166   1.381       .  A
C165       C2204   1.476       .  S
C166        H168   1.082       .  S
N169        N170   1.324       .  A
N169        C173   1.351       .  A
N169       Cu177   2.097       .  S
N170        C171   1.341       .  A
N170       Cu176   2.067       .  S
C171        C172   1.380       .  A
C171        H174   1.082       .  S
C172        C173   1.388       .  A
C172       C2297   1.477       .  S
C173        H175   1.082       .  S
Cu176       N179   2.066       .  S
Cu177       N187   2.097       .  S
Cu178       N180   2.072       .  S
Cu178       N186   2.074       .  S
N179        N180   1.320       .  A
N179        C183   1.345       .  A
N180        C181   1.345       .  A
C181        C182   1.384       .  A
C181        H184   1.082       .  S
C182        C183   1.384       .  A
C182       C2243   1.473       .  S
C183        H185   1.082       .  S
N186        N187   1.324       .  A
N186        C190   1.344       .  A
N187        C188   1.351       .  A
C188        C189   1.388       .  A
C188        H191   1.082       .  S
C189        C190   1.381       .  A
C189       C2186   1.478       .  S
C190        H192   1.082       .  S
N193        N194   1.322       .  A
N193        C197   1.345       .  A
N193       Cu201   2.068   1_545  S
N194        C195   1.342       .  A
N194       Cu200   2.065   1_655  S
C195        C196   1.381       .  A
C195        H198   1.082       .  S
C196        C197   1.382       .  A
C196       C2132   1.467       .  S
C197        H199   1.082   1_545  S
Cu200       N203   2.066       .  S
Cu201       N211   2.069       .  S
Cu202       N204   2.066   1_565  S
Cu202       N210   2.066   1_455  S
N203        N204   1.321       .  A
N203        C207   1.344       .  A
N204        C205   1.343       .  A
C205        C206   1.382       .  A
C205        H208   1.082       .  S
C206        C207   1.382       .  A
C206       C2153   1.469       .  S
C207        H209   1.082       .  S
N210        N211   1.322       .  A
N210        C214   1.344       .  A
N211        C212   1.343       .  A
C212        C213   1.382       .  A
C212        H215   1.082       .  S
C213        C214   1.382       .  A
C213       C2168   1.469       .  S
C214        H216   1.082   1_655  S
N217        N218   1.323       .  A
N217        C221   1.351       .  A
N217       Cu225   2.100       .  S
N218        C219   1.343       .  A
N218       Cu224   2.067       .  S
C219        C220   1.381       .  A
C219        H222   1.082       .  S
C220        C221   1.389       .  A
C220       C2096   1.479       .  S
C221        H223   1.082       .  S
Cu224       N227   2.066       .  S
Cu225       N235   2.100       .  S
Cu226       N228   2.059       .  S
Cu226       N234   2.060       .  S
N227        N228   1.320       .  A
N227        C231   1.344       .  A
N228        C229   1.344       .  A
C229        C230   1.382       .  A
C229        H232   1.082       .  S
C230        C231   1.383       .  A
C230       C2135   1.467       .  S
C231        H233   1.082       .  S
N234        N235   1.324       .  A
N234        C238   1.341       .  A
N235        C236   1.351       .  A
C236        C237   1.387       .  A
C236        H239   1.082       .  S
C237        C238   1.377       .  A
C237       C2117   1.471       .  S
C238        H240   1.082       .  S
N241        N242   1.323       .  A
N241        C245   1.351       .  A
N241       Cu249   2.103       .  S
N242        C243   1.341       .  A
N242       Cu248   2.059       .  S
C243        C244   1.379       .  A
C243        H246   1.081       .  S
C244        C245   1.391       .  A
C244       C2060   1.478       .  S
C245        H247   1.082       .  S
Cu248       N251   2.058       .  S
Cu249       N259   2.103       .  S
Cu250       N252   2.073       .  S
Cu250       N258   2.075       .  S
N251        N252   1.320       .  A
N251        C255   1.343       .  A
N252        C253   1.346       .  A
C253        C254   1.384       .  A
C253        H256   1.082       .  S
C254        C255   1.382       .  A
C254       C2150   1.470       .  S
C255        H257   1.082       .  S
N258        N259   1.324       .  A
N258        C262   1.342       .  A
N259        C260   1.353       .  A
C260        C261   1.389       .  A
C260        H263   1.082       .  S
C261        C262   1.381       .  A
C261       C2078   1.481       .  S
C262        H264   1.082       .  S
N265        N266   1.323       .  A
N265        C269   1.352       .  A
N265       Cu273   2.107       .  S
N266        C267   1.340       .  A
N266       Cu272   2.058       .  S
C267        C268   1.379       .  A
C267        H270   1.081       .  S
C268        C269   1.392       .  A
C268       C2042   1.479       .  S
C269        H271   1.082       .  S
Cu272       N275   2.057       .  S
Cu273       N283   2.107       .  S
Cu274       N276   2.073       .  S
Cu274       N282   2.075       .  S
N275        N276   1.319       .  A
N275        C279   1.343       .  A
N276        C277   1.345       .  A
C277        C278   1.385       .  A
C277        H280   1.082       .  S
C278        C279   1.382       .  A
C278       C2171   1.470       .  S
C279        H281   1.082       .  S
N282        N283   1.324       .  A
N282        C286   1.342       .  A
N283        C284   1.353       .  A
C284        C285   1.390       .  A
C284        H287   1.082       .  S
C285        C286   1.381       .  A
C285       C2027   1.480       .  S
C286        H288   1.082       .  S
N289        N290   1.321       .  A
N289        C293   1.346       .  A
N289       Cu297   2.076       .  S
N290        C291   1.343       .  A
N290       Cu296   2.062       .  S
C291        C292   1.382       .  A
C291        H294   1.082       .  S
C292        C293   1.385       .  A
C292       C1970   1.472       .  S
C293        H295   1.082       .  S
Cu296       N299   2.062       .  S
Cu297       N307   2.077       .  S
Cu298       N300   2.077       .  S
Cu298       N306   2.077       .  S
N299        N300   1.323       .  A
N299        C303   1.342       .  A
N300        C301   1.346       .  A
C301        C302   1.383       .  A
C301        H304   1.082       .  S
C302        C303   1.379       .  A
C302       C2006   1.467       .  S
C303        H305   1.082       .  S
N306        N307   1.323       .  A
N306        C310   1.346       .  A
N307        C308   1.345       .  A
C308        C309   1.383       .  A
C308        H311   1.082       .  S
C309        C310   1.383       .  A
C309       C1988   1.473       .  S
C310        H312   1.082       .  S
N313        N314   1.322       .  A
N313        C317   1.350       .  A
N313       Cu321   2.098       .  S
N314        C315   1.341       .  A
N314       Cu320   2.053       .  S
C315        C316   1.379       .  A
C315        H318   1.081       .  S
C316        C317   1.390       .  A
C316       C2063   1.477       .  S
C317        H319   1.082       .  S
Cu320       N323   2.053       .  S
Cu321       N331   2.098       .  S
Cu322       N324   2.065       .  S
Cu322       N330   2.066       .  S
N323        N324   1.320       .  A
N323        C327   1.341       .  A
N324        C325   1.344       .  A
C325        C326   1.383       .  A
C325        H328   1.082       .  S
C326        C327   1.380       .  A
C326       C2009   1.465       .  S
C327        H329   1.082       .  S
N330        N331   1.324       .  A
N330        C334   1.341       .  A
N331        C332   1.351       .  A
C332        C333   1.387       .  A
C332        H335   1.082       .  S
C333        C334   1.378       .  A
C333       C1952   1.472       .  S
C334        H336   1.082       .  S
N337        N338   1.322       .  A
N337        C341   1.351       .  A
N337       Cu345   2.096       .  S
N338        C339   1.342       .  A
N338       Cu344   2.063       .  S
C339        C340   1.381       .  A
C339        H342   1.082       .  S
C340        C341   1.390       .  A
C340       C2099   1.479       .  S
C341        H343   1.082       .  S
Cu344       N347   2.063       .  S
Cu345       N355   2.095       .  S
Cu346       N348   2.070       .  S
Cu346       N354   2.071       .  S
N347        N348   1.320       .  A
N347        C351   1.343       .  A
N348        C349   1.346       .  A
C349        C350   1.385       .  A
C349        H352   1.082       .  S
C350        C351   1.383       .  A
C350       C1973   1.472       .  S
C351        H353   1.082       .  S
N354        N355   1.325       .  A
N354        C358   1.342       .  A
N355        C356   1.351       .  A
C356        C357   1.386       .  A
C356        H359   1.082       .  S
C357        C358   1.379       .  A
C357       C1934   1.471       .  S
C358        H360   1.082       .  S
N361        N362   1.323       .  A
N361        C365   1.349       .  A
N361       Cu369   2.098       .  S
N362        C363   1.343       .  A
N362       Cu368   2.065       .  S
C363        C364   1.380       .  A
C363        H366   1.082       .  S
C364        C365   1.389       .  A
C364       C2045   1.477       .  S
C365        H367   1.082       .  S
Cu368       N371   2.063       .  S
Cu369       N379   2.098       .  S
Cu370       N372   2.076       .  S
Cu370       N378   2.077       .  S
N371        N372   1.320       .  A
N371        C375   1.343       .  A
N372        C373   1.347       .  A
C373        C374   1.386       .  A
C373        H376   1.082       .  S
C374        C375   1.382       .  A
C374       C1991   1.473       .  S
C375        H377   1.082       .  S
N378        N379   1.324       .  A
N378        C382   1.344       .  A
N379        C380   1.351       .  A
C380        C381   1.388       .  A
C380        H383   1.082       .  S
C381        C382   1.381       .  A
C381       C1916   1.478       .  S
C382        H384   1.082       .  S
N385        N386   1.322       .  A
N385        C389   1.346       .  A
N385       Cu393   2.071       .  S
N386        C387   1.343       .  A
N386       Cu392   2.069       .  S
C387        C388   1.383       .  A
C387        H390   1.082       .  S
C388        C389   1.383       .  A
C388       C1898   1.471       .  S
C389        H391   1.082       .  S
Cu392       N395   2.068       .  S
Cu393       N403   2.071       .  S
Cu394       N396   2.078       .  S
Cu394       N402   2.079       .  S
N395        N396   1.322       .  A
N395        C399   1.345       .  A
N396        C397   1.346       .  A
C397        C398   1.385       .  A
C397        H400   1.082       .  S
C398        C399   1.382       .  A
C398       C1865   1.472       .  S
C399        H401   1.082       .  S
N402        N403   1.323       .  A
N402        C406   1.346       .  A
N403        C404   1.344       .  A
C404        C405   1.382       .  A
C404        H407   1.082       .  S
C405        C406   1.383       .  A
C405       C1880   1.470       .  S
C406        H408   1.082       .  S
N409        N410   1.322       .  A
N409        C413   1.355       .  A
N409       Cu417   2.110       .  S
N410        C411   1.340       .  A
N410       Cu416   2.062       .  S
C411        C412   1.379   1_554  A
C411        H414   1.081   1_554  S
C412        C413   1.394   1_556  A
C412       C1847   1.484       .  S
C413        H415   1.082   1_564  S
Cu416       N419   2.062       .  S
Cu417       N427   2.111       .  S
Cu418       N420   2.071       .  S
Cu418       N426   2.072       .  S
N419        N420   1.319       .  A
N419        C423   1.343       .  A
N420        C421   1.347       .  A
C421        C422   1.386       .  A
C421        H424   1.082       .  S
C422        C423   1.383       .  A
C422       C1862   1.473       .  S
C423        H425   1.082       .  S
N426        N427   1.326       .  A
N426        C430   1.342       .  A
N427        C428   1.352   1_565  A
C428        C429   1.388   1_545  A
C428        H431   1.082       .  S
C429        C430   1.378       .  A
C429       C2114   1.475   1_565  S
C430        H432   1.082       .  S
N433        N434   1.324       .  A
N433        C437   1.351       .  A
N433       Cu441   2.100       .  S
N434        C435   1.343       .  A
N434       Cu440   2.070       .  S
C435        C436   1.382   1_554  A
C435        H438   1.082       .  S
C436        C437   1.389   1_556  A
C436       C1829   1.480       .  S
C437        H439   1.082   1_554  S
Cu440       N443   2.069       .  S
Cu441       N451   2.100       .  S
Cu442       N444   2.071       .  S
Cu442       N450   2.071       .  S
N443        N444   1.320       .  A
N443        C447   1.343       .  A
N444        C445   1.347       .  A
C445        C446   1.385       .  A
C445        H448   1.082       .  S
C446        C447   1.383       .  A
C446       C1901   1.473       .  S
C447        H449   1.082       .  S
N450        N451   1.324       .  A
N450        C454   1.341       .  A
N451        C452   1.353       .  A
C452        C453   1.389       .  A
C452        H455   1.082       .  S
C453        C454   1.378       .  A
C453       C2081   1.476       .  S
C454        H456   1.082       .  S
N457        N458   1.323       .  A
N457        C461   1.351   1_454  A
N457       Cu465   2.098       .  S
N458        C459   1.341   1_554  A
N458       Cu464   2.063       .  S
C459        C460   1.380       .  A
C459        H462   1.082       .  S
C460        C461   1.389   1_455  A
C460       C1808   1.477   1_455  S
C461        H463   1.082       .  S
Cu464       N467   2.062       .  S
Cu465       N475   2.098       .  S
Cu466       N468   2.074       .  S
Cu466       N474   2.074       .  S
N467        N468   1.320       .  A
N467        C471   1.344       .  A
N468        C469   1.345       .  A
C469        C470   1.385       .  A
C469        H472   1.082       .  S
C470        C471   1.383       .  A
C470       C1883   1.473       .  S
C471        H473   1.082       .  S
N474        N475   1.324       .  A
N474        C478   1.342       .  A
N475        C476   1.352   1_455  A
C476        C477   1.388       .  A
C476        H479   1.082       .  S
C477        C478   1.380   1_655  A
C477       C2024   1.477       .  S
C478        H480   1.082       .  S
N481        N482   1.321       .  A
N481        C485   1.345       .  A
N481       Cu489   2.074       .  S
N482        C483   1.345       .  A
N482       Cu488   2.071       .  S
C483        C484   1.384       .  A
C483        H486   1.082       .  S
C484        C485   1.384       .  A
C484       C1790   1.474       .  S
C485        H487   1.082       .  S
Cu488       N491   2.071       .  S
Cu489       N499   2.075       .  S
Cu490       N492   2.069       .  S
Cu490       N498   2.070       .  S
N491        N492   1.323       .  A
N491        C495   1.343       .  A
N492        C493   1.346       .  A
C493        C494   1.381       .  A
C493        H496   1.082       .  S
C494        C495   1.380       .  A
C494       C1772   1.464       .  S
C495        H497   1.082       .  S
N498        N499   1.322       .  A
N498        C502   1.345       .  A
N499        C500   1.344       .  A
C500        C501   1.384       .  A
C500        H503   1.082       .  S
C501        C502   1.382       .  A
C501       C1754   1.472       .  S
C502        H504   1.082       .  S
N505        N506   1.322       .  A
N505        C509   1.349       .  A
N505       Cu513   2.096       .  S
N506        C507   1.343       .  A
N506       Cu512   2.057       .  S
C507        C508   1.380       .  A
C507        H510   1.082       .  S
C508        C509   1.390       .  A
C508       C1811   1.477       .  S
C509        H511   1.082   1_655  S
Cu512       N515   2.057       .  S
Cu513       N523   2.097       .  S
Cu514       N516   2.075       .  S
Cu514       N522   2.076       .  S
N515        N516   1.321       .  A
N515        C519   1.341       .  A
N516        C517   1.347       .  A
C517        C518   1.386       .  A
C517        H520   1.082       .  S
C518        C519   1.381       .  A
C518       C1757   1.471       .  S
C519        H521   1.081       .  S
N522        N523   1.324       .  A
N522        C526   1.343       .  A
N523        C524   1.351   1_655  A
C524        C525   1.387   1_455  A
C524        H527   1.082       .  S
C525        C526   1.381       .  A
C525       C2333   1.477   1_655  S
C526        H528   1.082       .  S
N529        N530   1.324       .  A
N529        C533   1.352       .  A
N529       Cu537   2.110       .  S
N530        C531   1.342       .  A
N530       Cu536   2.063       .  S
C531        C532   1.379       .  A
C531        H534   1.082       .  S
C532        C533   1.392       .  A
C532       C1826   1.481       .  S
C533        H535   1.082       .  S
Cu536       N539   2.062       .  S
Cu537       N547   2.110       .  S
Cu538       N540   2.073       .  S
Cu538       N546   2.073       .  S
N539        N540   1.319       .  A
N539        C543   1.343       .  A
N540        C541   1.346       .  A
C541        C542   1.386       .  A
C541        H544   1.082       .  S
C542        C543   1.383       .  A
C542       C1793   1.473       .  S
C543        H545   1.082       .  S
N546        N547   1.325       .  A
N546        C550   1.341       .  A
N547        C548   1.355       .  A
C548        C549   1.391       .  A
C548        H551   1.082       .  S
C549        C550   1.379       .  A
C549       C2315   1.480       .  S
C550        H552   1.082       .  S
N553        N554   1.322       .  A
N553        C557   1.354       .  A
N553       Cu561   2.113       .  S
N554        C555   1.340       .  A
N554       Cu560   2.055       .  S
C555        C556   1.379       .  A
C555        H558   1.082       .  S
C556        C557   1.394       .  A
C556       C1844   1.482       .  S
C557        H559   1.082   1_545  S
Cu560       N563   2.054       .  S
Cu561       N571   2.114       .  S
Cu562       N564   2.073       .  S
Cu562       N570   2.076       .  S
N563        N564   1.319       .  A
N563        C567   1.340       .  A
N564        C565   1.348       .  A
C565        C566   1.385       .  A
C565        H568   1.082       .  S
C566        C567   1.379       .  A
C566       C1775   1.467       .  S
C567        H569   1.082       .  S
N570        N571   1.326       .  A
N570        C574   1.342       .  A
N571        C572   1.354   1_545  A
C572        C573   1.389       .  A
C572        H575   1.082       .  S
C573        C574   1.378   1_565  A
C573       C2387   1.478       .  S
C574        H576   1.082       .  S
N577        N578   1.322       .  A
N577        C581   1.347       .  A
N577       Cu585   2.079   1_545  S
N578        C579   1.344       .  A
N578       Cu584   2.073       .  S
C579        C580   1.382       .  A
C579        H582   1.082       .  S
C580        C581   1.384       .  A
C580       C1721   1.472       .  S
C581        H583   1.082       .  S
Cu584       N587   2.073       .  S
Cu585       N595   2.080   1_455  S
Cu586       N588   2.083   1_565  S
Cu586       N594   2.083       .  S
N587        N588   1.322   1_455  A
N587        C591   1.345       .  A
N588        C589   1.347       .  A
C589        C590   1.385       .  A
C589        H592   1.082       .  S
C590        C591   1.383   1_655  A
C590       C1703   1.476       .  S
C591        H593   1.082       .  S
N594        N595   1.323       .  A
N594        C598   1.347       .  A
N595        C596   1.346       .  A
C596        C597   1.384       .  A
C596        H599   1.082       .  S
C597        C598   1.385       .  A
C597       C1739   1.477       .  S
C598        H600   1.082       .  S
N601        N602   1.323       .  A
N601        C605   1.351       .  A
N601       Cu609   2.095       .  S
N602        C603   1.343       .  A
N602       Cu608   2.072       .  S
C603        C604   1.382       .  A
C603        H606   1.081       .  S
C604        C605   1.389       .  A
C604       C1664   1.480       .  S
C605        H607   1.082       .  S
Cu608       N611   2.071       .  S
Cu609       N619   2.095       .  S
Cu610       N612   2.069       .  S
Cu610       N618   2.069       .  S
N611        N612   1.320       .  A
N611        C615   1.345       .  A
N612        C613   1.345       .  A
C613        C614   1.383       .  A
C613        H616   1.082       .  S
C614        C615   1.384       .  A
C614       C1700   1.473       .  S
C615        H617   1.082       .  S
N618        N619   1.323       .  A
N618        C622   1.342       .  A
N619        C620   1.351       .  A
C620        C621   1.387       .  A
C620        H623   1.082       .  S
C621        C622   1.380       .  A
C621       C1682   1.475       .  S
C622        H624   1.082       .  S
N625        N626   1.323       .  A
N625        C629   1.351       .  A
N625       Cu633   2.104       .  S
N626        C627   1.341       .  A
N626       Cu632   2.058       .  S
C627        C628   1.379       .  A
C627        H630   1.081       .  S
C628        C629   1.391       .  A
C628       C1649   1.478       .  S
C629        H631   1.082       .  S
Cu632       N635   2.058       .  S
Cu633       N643   2.104       .  S
Cu634       N636   2.075       .  S
Cu634       N642   2.077       .  S
N635        N636   1.320       .  A
N635        C639   1.342       .  A
N636        C637   1.347       .  A
C637        C638   1.386       .  A
C637        H640   1.082       .  S
C638        C639   1.381       .  A
C638       C1718   1.471       .  S
C639        H641   1.082       .  S
N642        N643   1.325       .  A
N642        C646   1.344       .  A
N643        C644   1.352       .  A
C644        C645   1.388       .  A
C644        H647   1.082       .  S
C645        C646   1.381       .  A
C645       C1628   1.479       .  S
C646        H648   1.082       .  S
N649        N650   1.324       .  A
N649        C653   1.351       .  A
N649       Cu657   2.104       .  S
N650        C651   1.345       .  A
N650       Cu656   2.074       .  S
C651        C652   1.383       .  A
C651        H654   1.082       .  S
C652        C653   1.390       .  A
C652       C1592   1.483       .  S
C653        H655   1.082       .  S
Cu656       N659   2.073       .  S
Cu657       N667   2.104       .  S
Cu658       N660   2.076       .  S
Cu658       N666   2.077       .  S
N659        N660   1.321       .  A
N659        C663   1.345       .  A
N660        C661   1.347       .  A
C661        C662   1.385       .  A
C661        H664   1.082       .  S
C662        C663   1.384       .  A
C662       C1736   1.475       .  S
C663        H665   1.082       .  S
N666        N667   1.324       .  A
N666        C670   1.345       .  A
N667        C668   1.351       .  A
C668        C669   1.388       .  A
C668        H671   1.082       .  S
C669        C670   1.381       .  A
C669       C1613   1.479       .  S
C670        H672   1.082       .  S
N673        N674   1.322       .  A
N673        C677   1.345       .  A
N673       Cu681   2.076       .  S
N674        C675   1.344       .  A
N674       Cu680   2.067       .  S
C675        C676   1.381       .  A
C675        H678   1.082       .  S
C676        C677   1.383       .  A
C676       C1559   1.470       .  S
C677        H679   1.082       .  S
Cu680       N683   2.066       .  S
Cu681       N691   2.076       .  S
Cu682       N684   2.082       .  S
Cu682       N690   2.082       .  S
N683        N684   1.322       .  A
N683        C687   1.344       .  A
N684        C685   1.346       .  A
C685        C686   1.385       .  A
C685        H688   1.082       .  S
C686        C687   1.381       .  A
C686       C1541   1.472       .  S
C687        H689   1.082       .  S
N690        N691   1.323       .  A
N690        C694   1.346       .  A
N691        C692   1.346       .  A
C692        C693   1.384       .  A
C692        H695   1.082       .  S
C693        C694   1.385       .  A
C693       C1574   1.476       .  S
C694        H696   1.082       .  S
N697        N698   1.323       .  A
N697        C701   1.351       .  A
N697       Cu705   2.095       .  S
N698        C699   1.342       .  A
N698       Cu704   2.070       .  S
C699        C700   1.381       .  A
C699        H702   1.081       .  S
C700        C701   1.389       .  A
C700       C1646   1.478       .  S
C701        H703   1.082       .  S
Cu704       N707   2.069       .  S
Cu705       N715   2.095       .  S
Cu706       N708   2.079       .  S
Cu706       N714   2.080       .  S
N707        N708   1.320       .  A
N707        C711   1.346       .  A
N708        C709   1.346       .  A
C709        C710   1.386       .  A
C709        H712   1.082       .  S
C710        C711   1.384       .  A
C710       C1577   1.476       .  S
C711        H713   1.082       .  S
N714        N715   1.324       .  A
N714        C718   1.345       .  A
N715        C716   1.350       .  A
C716        C717   1.386       .  A
C716        H719   1.082       .  S
C717        C718   1.381       .  A
C717       C2207   1.475       .  S
C718        H720   1.082       .  S
N721        N722   1.323       .  A
N721        C725   1.351       .  A
N721       Cu729   2.109       .  S
N722        C723   1.343       .  A
N722       Cu728   2.060       .  S
C723        C724   1.379       .  A
C723        H726   1.082       .  S
C724        C725   1.392       .  A
C724       C1667   1.480       .  S
C725        H727   1.082       .  S
Cu728       N731   2.058       .  S
Cu729       N739   2.109       .  S
Cu730       N732   2.078       .  S
Cu730       N738   2.079       .  S
N731        N732   1.320       .  A
N731        C735   1.342       .  A
N732        C733   1.347       .  A
C733        C734   1.386       .  A
C733        H736   1.082       .  S
C734        C735   1.381       .  A
C734       C1556   1.471       .  S
C735        H737   1.082       .  S
N738        N739   1.325       .  A
N738        C742   1.345       .  A
N739        C740   1.352       .  A
C740        C741   1.389       .  A
C740        H743   1.082       .  S
C741        C742   1.381       .  A
C741       C2189   1.480       .  S
C742        H744   1.082       .  S
N745        N746   1.324       .  A
N745        C749   1.353       .  A
N745       Cu753   2.112       .  S
N746        C747   1.344       .  A
N746       Cu752   2.074       .  S
C747        C748   1.382       .  A
C747        H750   1.082       .  S
C748        C749   1.391       .  A
C748       C1595   1.484       .  S
C749        H751   1.082       .  S
Cu752       N755   2.072       .  S
Cu753       N763   2.112       .  S
Cu754       N756   2.066       .  S
Cu754       N762   2.067       .  S
N755        N756   1.320       .  A
N755        C759   1.345       .  A
N756        C757   1.345       .  A
C757        C758   1.383       .  A
C757        H760   1.082       .  S
C758        C759   1.383       .  A
C758       C1538   1.470       .  S
C759        H761   1.082       .  S
N762        N763   1.324       .  A
N762        C766   1.343       .  A
N763        C764   1.353       .  A
C764        C765   1.391       .  A
C764        H767   1.082       .  S
C765        C766   1.380       .  A
C765       C2225   1.481       .  S
C766        H768   1.082       .  S
N769        N770   1.323       .  A
N769        C773   1.345       .  A
N769       Cu777   2.068   1_455  S
N770        C771   1.344       .  A
N770       Cu776   2.078   1_565  S
C771        C772   1.383       .  A
C771        H774   1.082       .  S
C772        C773   1.382       .  A
C772       C1487   1.470       .  S
C773        H775   1.082   1_455  S
Cu776       N779   2.079       .  S
Cu777       N787   2.068       .  S
Cu778       N780   2.083   1_655  S
Cu778       N786   2.083   1_545  S
N779        N780   1.322       .  A
N779        C783   1.347       .  A
N780        C781   1.346       .  A
C781        C782   1.386       .  A
C781        H784   1.082       .  S
C782        C783   1.385       .  A
C782       C1502   1.479       .  S
C783        H785   1.082       .  S
N786        N787   1.323       .  A
N786        C790   1.346       .  A
N787        C788   1.344       .  A
C788        C789   1.382       .  A
C788        H791   1.082       .  S
C789        C790   1.385       .  A
C789       C1520   1.473       .  S
C790        H792   1.082   1_565  S
N793        N794   1.324       .  A
N793        C797   1.352       .  A
N793       Cu801   2.112       .  S
N794        C795   1.344       .  A
N794       Cu800   2.068       .  S
C795        C796   1.381       .  A
C795        H798   1.082       .  S
C796        C797   1.391       .  A
C796       C1451   1.482       .  S
C797        H799   1.082       .  S
Cu800       N803   2.067       .  S
Cu801       N811   2.111       .  S
Cu802       N804   2.065       .  S
Cu802       N810   2.066       .  S
N803        N804   1.320       .  A
N803        C807   1.344       .  A
N804        C805   1.345       .  A
C805        C806   1.383       .  A
C805        H808   1.082       .  S
C806        C807   1.384       .  A
C806       C1484   1.471       .  S
C807        H809   1.082       .  S
N810        N811   1.324       .  A
N810        C814   1.341       .  A
N811        C812   1.354       .  A
C812        C813   1.391       .  A
C812        H815   1.082       .  S
C813        C814   1.378       .  A
C813       C1466   1.478       .  S
C814        H816   1.082       .  S
N817        N818   1.323       .  A
N817        C821   1.352       .  A
N817       Cu825   2.104       .  S
N818        C819   1.341       .  A
N818       Cu824   2.062       .  S
C819        C820   1.378       .  A
C819        H822   1.081       .  S
C820        C821   1.391       .  A
C820       C1415   1.478       .  S
C821        H823   1.082       .  S
Cu824       N827   2.062       .  S
Cu825       N835   2.105       .  S
Cu826       N828   2.087       .  S
Cu826       N834   2.088       .  S
N827        N828   1.320       .  A
N827        C831   1.344       .  A
N828        C829   1.349       .  A
C829        C830   1.388       .  A
C829        H832   1.082       .  S
C830        C831   1.383       .  A
C830       C1505   1.478       .  S
C831        H833   1.082       .  S
N834        N835   1.325       .  A
N834        C838   1.344       .  A
N835        C836   1.354       .  A
C836        C837   1.390       .  A
C836        H839   1.082       .  S
C837        C838   1.382       .  A
C837       C1433   1.483       .  S
C838        H840   1.082       .  S
N841        N842   1.323       .  A
N841        C845   1.354       .  A
N841       Cu849   2.113       .  S
N842        C843   1.341       .  A
N842       Cu848   2.060       .  S
C843        C844   1.379       .  A
C843        H846   1.082       .  S
C844        C845   1.393       .  A
C844       C1376   1.482       .  S
C845        H847   1.082       .  S
Cu848       N851   2.060       .  S
Cu849       N859   2.113       .  S
Cu850       N852   2.068       .  S
Cu850       N858   2.068       .  S
N851        N852   1.319       .  A
N851        C855   1.344       .  A
N852        C853   1.345       .  A
C853        C854   1.384       .  A
C853        H856   1.082       .  S
C854        C855   1.383       .  A
C854       C1523   1.471       .  S
C855        H857   1.082       .  S
N858        N859   1.325       .  A
N858        C862   1.342       .  A
N859        C860   1.353       .  A
C860        C861   1.390       .  A
C860        H863   1.082       .  S
C861        C862   1.378       .  A
C861       C1394   1.478       .  S
C862        H864   1.082       .  S
N865        N866   1.323       .  A
N865        C869   1.343       .  A
N865       Cu873   2.070       .  S
N866        C867   1.348       .  A
N866       Cu872   2.085       .  S
C867        C868   1.385       .  A
C867        H870   1.082       .  S
C868        C869   1.381       .  A
C868       C1340   1.472       .  S
C869        H871   1.082       .  S
Cu872       N875   2.085       .  S
Cu873       N883   2.069       .  S
Cu874       N876   2.066       .  S
Cu874       N882   2.066       .  S
N875        N876   1.323       .  A
N875        C879   1.348       .  A
N876        C877   1.342       .  A
C877        C878   1.379       .  A
C877        H880   1.082       .  S
C878        C879   1.386       .  A
C878       C1358   1.471       .  S
C879        H881   1.082       .  S
N882        N883   1.320       .  A
N882        C886   1.345       .  A
N883        C884   1.344       .  A
C884        C885   1.384       .  A
C884        H887   1.082       .  S
C885        C886   1.384       .  A
C885       C1322   1.472       .  S
C886        H888   1.082       .  S
N889        N890   1.323       .  A
N889        C893   1.350       .  A
N889       Cu897   2.094       .  S
N890        C891   1.343       .  A
N890       Cu896   2.070       .  S
C891        C892   1.382       .  A
C891        H894   1.082       .  S
C892        C893   1.389       .  A
C892       C1448   1.480       .  S
C893        H895   1.082       .  S
Cu896       N899   2.069       .  S
Cu897       N907   2.094       .  S
Cu898       N900   2.066       .  S
Cu898       N906   2.067       .  S
N899        N900   1.320       .  A
N899        C903   1.344       .  A
N900        C901   1.346       .  A
C901        C902   1.384       .  A
C901        H904   1.082       .  S
C902        C903   1.384       .  A
C902       C1325   1.472       .  S
C903        H905   1.082       .  S
N906        N907   1.324       .  A
N906        C910   1.341       .  A
N907        C908   1.351       .  A
C908        C909   1.387       .  A
C908        H911   1.082       .  S
C909        C910   1.379       .  A
C909       C1955   1.473       .  S
C910        H912   1.082       .  S
N913        N914   1.324       .  A
N913        C917   1.353       .  A
N913       Cu921   2.107       .  S
N914        C915   1.343       .  A
N914       Cu920   2.075       .  S
C915        C916   1.382       .  A
C915        H918   1.082       .  S
C916        C917   1.391       .  A
C916       C1379   1.483       .  S
C917        H919   1.082       .  S
Cu920       N923   2.074       .  S
Cu921       N931   2.106       .  S
Cu922       N924   2.068       .  S
Cu922       N930   2.069       .  S
N923        N924   1.320       .  A
N923        C927   1.346       .  A
N924        C925   1.345       .  A
C925        C926   1.383       .  A
C925        H928   1.082       .  S
C926        C927   1.384       .  A
C926       C1343   1.472       .  S
C927        H929   1.082       .  S
N930        N931   1.324       .  A
N930        C934   1.343       .  A
N931        C932   1.352       .  A
C932        C933   1.389       .  A
C932        H935   1.082       .  S
C933        C934   1.380       .  A
C933       C1919   1.478       .  S
C934        H936   1.082       .  S
N937        N938   1.322       .  A
N937        C941   1.352       .  A
N937       Cu945   2.098       .  S
N938        C939   1.338       .  A
N938       Cu944   2.052       .  S
C939        C940   1.377       .  A
C939        H942   1.081       .  S
C940        C941   1.391       .  A
C940       C1412   1.476       .  S
C941        H943   1.082       .  S
Cu944       N947   2.052       .  S
Cu945       N955   2.099       .  S
Cu946       N948   2.071       .  S
Cu946       N954   2.073       .  S
N947        N948   1.319       .  A
N947        C951   1.342       .  A
N948        C949   1.346       .  A
C949        C950   1.386       .  A
C949        H952   1.082       .  S
C950        C951   1.380       .  A
C950       C1361   1.469       .  S
C951        H953   1.082       .  S
N954        N955   1.325       .  A
N954        C958   1.341       .  A
N955        C956   1.351       .  A
C956        C957   1.387       .  A
C956        H959   1.082       .  S
C957        C958   1.379       .  A
C957       C1937   1.474       .  S
C958        H960   1.082       .  S
N961        N962   1.323       .  A
N961        C965   1.345       .  A
N961       Cu969   2.080       .  S
N962        C963   1.345       .  A
N962       Cu968   2.072       .  S
C963        C964   1.382       .  A
C963        H966   1.082       .  S
C964        C965   1.384       .  A
C964       C1289   1.473       .  S
C965        H967   1.082       .  S
Cu968       N971   2.072       .  S
Cu969       N979   2.080       .  S
Cu970       N972   2.069       .  S
Cu970       N978   2.068       .  S
N971        N972   1.321       .  A
N971        C975   1.345       .  A
N972        C973   1.344       .  A
C973        C974   1.383       .  A
C973        H976   1.082       .  S
C974        C975   1.384       .  A
C974       C1304   1.472       .  S
C975        H977   1.082       .  S
N978        N979   1.322       .  A
N978        C982   1.343       .  A
N979        C980   1.347       .  A
C980        C981   1.386       .  A
C980        H983   1.082       .  S
C981        C982   1.381       .  A
C981       C1268   1.473       .  S
C982        H984   1.082       .  S
N985        N986   1.323       .  A
N985        C989   1.352       .  A
N985       Cu993   2.105       .  S
N986        C987   1.342       .  A
N986       Cu992   2.060       .  S
C987        C988   1.379       .  A
C987        H990   1.081       .  S
C988        C989   1.391       .  A
C988       C1250   1.479       .  S
C989        H991   1.082   1_655  S
Cu992       N995   2.059       .  S
Cu993      N1003   2.105       .  S
Cu994       N996   2.070       .  S
Cu994      N1002   2.072       .  S
N995        N996   1.320       .  A
N995        C999   1.342       .  A
N996        C997   1.346       .  A
C997        C998   1.384       .  A
C997       H1000   1.082       .  S
C998        C999   1.381       .  A
C998       C1271   1.469       .  S
C999       H1001   1.082       .  S
N1002      N1003   1.325       .  A
N1002      C1006   1.343       .  A
N1003      C1004   1.352   1_655  A
C1004      C1005   1.389   1_455  A
C1004      H1007   1.082       .  S
C1005      C1006   1.379       .  A
C1005      C1469   1.478   1_655  S
C1006      H1008   1.082       .  S
N1009      N1010   1.324       .  A
N1009      C1013   1.352       .  A
N1009     Cu1017   2.110       .  S
N1010      C1011   1.345       .  A
N1010     Cu1016   2.073       .  S
C1011      C1012   1.382       .  A
C1011      H1014   1.082       .  S
C1012      C1013   1.391       .  A
C1012      C1232   1.484       .  S
C1013      H1015   1.082       .  S
Cu1016     N1019   2.072       .  S
Cu1017     N1027   2.110       .  S
Cu1018     N1020   2.073       .  S
Cu1018     N1026   2.073       .  S
N1019      N1020   1.321       .  A
N1019      C1023   1.345       .  A
N1020      C1021   1.346       .  A
C1021      C1022   1.384       .  A
C1021      H1024   1.082       .  S
C1022      C1023   1.384       .  A
C1022      C1307   1.473       .  S
C1023      H1025   1.082       .  S
N1026      N1027   1.324       .  A
N1026      C1030   1.343       .  A
N1027      C1028   1.354       .  A
C1028      C1029   1.390       .  A
C1028      H1031   1.082       .  S
C1029      C1030   1.380       .  A
C1029      C1430   1.481       .  S
C1030      H1032   1.082       .  S
N1033      N1034   1.324       .  A
N1033      C1037   1.351   1_545  A
N1033     Cu1041   2.101       .  S
N1034      C1035   1.343       .  A
N1034     Cu1040   2.071       .  S
C1035      C1036   1.381       .  A
C1035      H1038   1.081       .  S
C1036      C1037   1.390   1_545  A
C1036      C1217   1.480       .  S
C1037      H1039   1.082       .  S
Cu1040     N1043   2.070       .  S
Cu1041     N1051   2.101       .  S
Cu1042     N1044   2.070       .  S
Cu1042     N1050   2.071       .  S
N1043      N1044   1.320       .  A
N1043      C1047   1.345       .  A
N1044      C1045   1.345       .  A
C1045      C1046   1.384       .  A
C1045      H1048   1.082       .  S
C1046      C1047   1.384       .  A
C1046      C1286   1.473       .  S
C1047      H1049   1.082       .  S
N1050      N1051   1.323       .  A
N1050      C1054   1.343       .  A
N1051      C1052   1.351   1_545  A
C1052      C1053   1.390   1_565  A
C1052      H1055   1.082       .  S
C1053      C1054   1.381       .  A
C1053      C1397   1.480   1_545  S
C1054      H1056   1.082       .  S
N1057      N1058   1.322       .  A
N1057      C1061   1.344       .  A
N1057     Cu1065   2.073       .  S
N1058      C1059   1.346       .  A
N1058     Cu1064   2.070       .  S
C1059      C1060   1.383       .  A
C1059      H1062   1.082       .  S
C1060      C1061   1.382       .  A
C1060      C1163   1.470       .  S
C1061      H1063   1.082       .  S
Cu1064     N1067   2.070       .  S
Cu1065     N1075   2.074       .  S
Cu1066     N1068   2.085       .  S
Cu1066     N1074   2.086       .  S
N1067      N1068   1.323       .  A
N1067      C1071   1.343       .  A
N1068      C1069   1.347       .  A
C1069      C1070   1.386       .  A
C1069      H1072   1.082       .  S
C1070      C1071   1.381       .  A
C1070      C1196   1.473       .  S
C1071      H1073   1.082       .  S
N1074      N1075   1.323       .  A
N1074      C1078   1.346       .  A
N1075      C1076   1.346       .  A
C1076      C1077   1.383       .  A
C1076      H1079   1.082       .  S
C1077      C1078   1.385       .  A
C1077      C1178   1.476       .  S
C1078      H1080   1.082       .  S
N1081      N1082   1.323       .  A
N1081      C1085   1.351       .  A
N1081     Cu1089   2.102       .  S
N1082      C1083   1.343       .  A
N1082     Cu1088   2.062       .  S
C1083      C1084   1.380       .  A
C1083      H1086   1.082       .  S
C1084      C1085   1.390       .  A
C1084      C1214   1.479       .  S
C1085      H1087   1.082       .  S
Cu1088     N1091   2.061       .  S
Cu1089     N1099   2.102       .  S
Cu1090     N1092   2.079       .  S
Cu1090     N1098   2.080       .  S
N1091      N1092   1.321       .  A
N1091      C1095   1.343       .  A
N1092      C1093   1.347       .  A
C1093      C1094   1.385       .  A
C1093      H1096   1.082       .  S
C1094      C1095   1.381       .  A
C1094      C1160   1.470       .  S
C1095      H1097   1.082       .  S
N1098      N1099   1.325       .  A
N1098      C1102   1.346       .  A
N1099      C1100   1.350   1_565  A
C1100      C1101   1.387       .  A
C1100      H1103   1.082       .  S
C1101      C1102   1.382   1_545  A
C1101      C1631   1.479       .  S
C1102      H1104   1.082       .  S
N1105      N1106   1.324       .  A
N1105      C1109   1.351       .  A
N1105     Cu1113   2.108       .  S
N1106      C1107   1.345       .  A
N1106     Cu1112   2.076       .  S
C1107      C1108   1.383       .  A
C1107      H1110   1.082       .  S
C1108      C1109   1.391       .  A
C1108      C1235   1.484       .  S
C1109      H1111   1.082       .  S
Cu1112     N1115   2.075       .  S
Cu1113     N1123   2.108       .  S
Cu1114     N1116   2.077       .  S
Cu1114     N1122   2.077       .  S
N1115      N1116   1.321       .  A
N1115      C1119   1.344       .  A
N1116      C1117   1.348       .  A
C1117      C1118   1.385       .  A
C1117      H1120   1.082       .  S
C1118      C1119   1.384       .  A
C1118      C1181   1.475       .  S
C1119      H1121   1.082       .  S
N1122      N1123   1.324       .  A
N1122      C1126   1.344       .  A
N1123      C1124   1.353       .  A
C1124      C1125   1.390       .  A
C1124      H1127   1.082       .  S
C1125      C1126   1.381       .  A
C1125      C1610   1.482       .  S
C1126      H1128   1.082       .  S
N1129      N1130   1.324       .  A
N1129      C1133   1.352   1_455  A
N1129     Cu1137   2.102       .  S
N1130      C1131   1.341       .  A
N1130     Cu1136   2.064       .  S
C1131      C1132   1.379       .  A
C1131      H1134   1.081       .  S
C1132      C1133   1.391   1_455  A
C1132      C1253   1.479       .  S
C1133      H1135   1.082       .  S
Cu1136     N1139   2.064       .  S
Cu1137     N1147   2.102       .  S
Cu1138     N1140   2.067       .  S
Cu1138     N1146   2.068       .  S
N1139      N1140   1.319       .  A
N1139      C1143   1.345       .  A
N1140      C1141   1.344       .  A
C1141      C1142   1.383       .  A
C1141      H1144   1.082       .  S
C1142      C1143   1.384       .  A
C1142      C1199   1.472       .  S
C1143      H1145   1.082       .  S
N1146      N1147   1.324       .  A
N1146      C1150   1.342       .  A
N1147      C1148   1.352   1_455  A
C1148      C1149   1.388       .  A
C1148      H1151   1.082       .  S
C1149      C1150   1.379   1_655  A
C1149      C1685   1.476       .  S
C1150      H1152   1.082       .  S
C1153      N1159   1.342       .  A
C1153      C1158   1.385       .  A
C1153      C1154   1.402       .  A
C1154      C1155   1.401       .  A
C1154      H1165   1.082       .  S
C1155      C1164   1.376       .  A
C1155      C1156   1.385       .  A
C1156      N1162   1.344       .  A
C1156      C1157   1.404       .  A
C1157      C1158   1.403       .  A
C1157      H1166   1.082       .  S
C1158      C1161   1.379       .  A
N1159      C1160   1.355       .  A
N1159      H1169   1.045       .  S
C1160      C1161   1.395       .  A
C1161      H1167   1.082       .  S
N1162      C1163   1.356       .  A
N1162      H1170   1.045       .  S
C1163      C1164   1.394       .  A
C1164      H1168   1.082       .  S
C1171      N1177   1.343       .  A
C1171      C1176   1.385       .  A
C1171      C1172   1.401       .  A
C1172      C1173   1.401       .  A
C1172      H1183   1.082       .  S
C1173      C1182   1.376       .  A
C1173      C1174   1.384       .  A
C1174      N1180   1.347       .  A
C1174      C1175   1.407       .  A
C1175      C1176   1.407       .  A
C1175      H1184   1.082       .  S
C1176      C1179   1.382       .  A
N1177      C1178   1.354       .  A
N1177      H1187   1.045       .  S
C1178      C1179   1.398       .  A
C1179      H1185   1.082       .  S
N1180      C1181   1.357       .  A
N1180      H1188   1.045       .  S
C1181      C1182   1.393       .  A
C1182      H1186   1.082       .  S
C1189      N1195   1.342       .  A
C1189      C1194   1.384       .  A
C1189      C1190   1.404       .  A
C1190      C1191   1.402       .  A
C1190      H1201   1.082       .  S
C1191      C1200   1.379       .  A
C1191      C1192   1.384       .  A
C1192      N1198   1.342       .  A
C1192      C1193   1.403       .  A
C1193      C1194   1.402       .  A
C1193      H1202   1.082       .  S
C1194      C1197   1.379       .  A
N1195      C1196   1.356       .  A
N1195      H1205   1.044       .  S
C1196      C1197   1.395       .  A
C1197      H1203   1.082       .  S
N1198      C1199   1.355       .  A
N1198      H1206   1.044       .  S
C1199      C1200   1.395       .  A
C1200      H1204   1.082       .  S
C1207      N1213   1.344       .  A
C1207      C1212   1.383       .  A
C1207      C1208   1.406       .  A
C1208      C1209   1.404       .  A
C1208      H1219   1.082       .  S
C1209      C1218   1.383       .  A
C1209      C1210   1.384   1_565  A
C1210      N1216   1.343       .  A
C1210      C1211   1.405       .  A
C1211      C1212   1.403   1_545  A
C1211      H1220   1.082       .  S
C1212      C1215   1.382       .  A
N1213      C1214   1.358       .  A
N1213      H1223   1.044       .  S
C1214      C1215   1.396       .  A
C1215      H1221   1.082   1_565  S
N1216      C1217   1.357       .  A
N1216      H1224   1.044       .  S
C1217      C1218   1.397   1_545  A
C1218      H1222   1.082       .  S
C1225      N1231   1.345       .  A
C1225      C1230   1.383       .  A
C1225      C1226   1.407       .  A
C1226      C1227   1.405       .  A
C1226      H1237   1.082       .  S
C1227      C1236   1.383       .  A
C1227      C1228   1.383       .  A
C1228      N1234   1.345       .  A
C1228      C1229   1.407       .  A
C1229      C1230   1.406       .  A
C1229      H1238   1.082       .  S
C1230      C1233   1.384       .  A
N1231      C1232   1.358       .  A
N1231      H1241   1.044       .  S
C1232      C1233   1.398       .  A
C1233      H1239   1.082       .  S
N1234      C1235   1.358       .  A
N1234      H1242   1.044       .  S
C1235      C1236   1.398       .  A
C1236      H1240   1.082       .  S
C1243      N1249   1.343       .  A
C1243      C1248   1.383   1_655  A
C1243      C1244   1.407       .  A
C1244      C1245   1.404       .  A
C1244      H1255   1.082       .  S
C1245      C1254   1.384       .  A
C1245      C1246   1.383   1_655  A
C1246      N1252   1.341       .  A
C1246      C1247   1.405       .  A
C1247      C1248   1.402       .  A
C1247      H1256   1.082       .  S
C1248      C1251   1.382       .  A
N1249      C1250   1.358       .  A
N1249      H1259   1.044       .  S
C1250      C1251   1.396   1_655  A
C1251      H1257   1.082       .  S
N1252      C1253   1.357       .  A
N1252      H1260   1.044       .  S
C1253      C1254   1.397   1_455  A
C1254      H1258   1.082       .  S
C1261      N1267   1.344       .  A
C1261      C1266   1.385       .  A
C1261      C1262   1.402       .  A
C1262      C1263   1.402       .  A
C1262      H1273   1.082       .  S
C1263      C1272   1.375       .  A
C1263      C1264   1.385       .  A
C1264      N1270   1.344       .  A
C1264      C1265   1.403       .  A
C1265      C1266   1.403       .  A
C1265      H1274   1.082       .  S
C1266      C1269   1.376       .  A
N1267      C1268   1.355       .  A
N1267      H1277   1.044       .  S
C1268      C1269   1.396       .  A
C1269      H1275   1.082       .  S
N1270      C1271   1.355       .  A
N1270      H1278   1.045       .  S
C1271      C1272   1.394       .  A
C1272      H1276   1.082       .  S
C1279      N1285   1.344       .  A
C1279      C1284   1.384       .  A
C1279      C1280   1.404       .  A
C1280      C1281   1.403       .  A
C1280      H1291   1.082       .  S
C1281      C1290   1.378       .  A
C1281      C1282   1.384       .  A
C1282      N1288   1.343       .  A
C1282      C1283   1.403       .  A
C1283      C1284   1.402       .  A
C1283      H1292   1.082       .  S
C1284      C1287   1.377       .  A
N1285      C1286   1.356       .  A
N1285      H1295   1.044       .  S
C1286      C1287   1.395       .  A
C1287      H1293   1.082       .  S
N1288      C1289   1.355       .  A
N1288      H1296   1.044       .  S
C1289      C1290   1.396       .  A
C1290      H1294   1.082       .  S
C1297      N1303   1.343       .  A
C1297      C1302   1.384       .  A
C1297      C1298   1.403       .  A
C1298      C1299   1.402       .  A
C1298      H1309   1.082       .  S
C1299      C1308   1.377       .  A
C1299      C1300   1.384       .  A
C1300      N1306   1.344       .  A
C1300      C1301   1.404       .  A
C1301      C1302   1.403       .  A
C1301      H1310   1.082       .  S
C1302      C1305   1.379       .  A
N1303      C1304   1.355       .  A
N1303      H1313   1.044       .  S
C1304      C1305   1.395       .  A
C1305      H1311   1.082       .  S
N1306      C1307   1.356       .  A
N1306      H1314   1.044       .  S
C1307      C1308   1.395       .  A
C1308      H1312   1.082       .  S
C1315      N1321   1.343       .  A
C1315      C1320   1.384       .  A
C1315      C1316   1.402       .  A
C1316      C1317   1.401       .  A
C1316      H1327   1.082       .  S
C1317      C1326   1.376       .  A
C1317      C1318   1.384       .  A
C1318      N1324   1.344       .  A
C1318      C1319   1.404       .  A
C1319      C1320   1.403       .  A
C1319      H1328   1.082       .  S
C1320      C1323   1.378       .  A
N1321      C1322   1.355       .  A
N1321      H1331   1.044       .  S
C1322      C1323   1.395       .  A
C1323      H1329   1.082       .  S
N1324      C1325   1.356       .  A
N1324      H1332   1.044       .  S
C1325      C1326   1.394       .  A
C1326      H1330   1.082       .  S
C1333      N1339   1.344       .  A
C1333      C1338   1.385       .  A
C1333      C1334   1.403       .  A
C1334      C1335   1.403       .  A
C1334      H1345   1.082       .  S
C1335      C1344   1.377       .  A
C1335      C1336   1.385       .  A
C1336      N1342   1.344       .  A
C1336      C1337   1.403       .  A
C1337      C1338   1.403       .  A
C1337      H1346   1.082       .  S
C1338      C1341   1.377       .  A
N1339      C1340   1.355       .  A
N1339      H1349   1.044       .  S
C1340      C1341   1.395       .  A
C1341      H1347   1.082       .  S
N1342      C1343   1.356       .  A
N1342      H1350   1.044       .  S
C1343      C1344   1.395       .  A
C1344      H1348   1.082       .  S
C1351      N1357   1.341       .  A
C1351      C1356   1.384       .  A
C1351      C1352   1.403       .  A
C1352      C1353   1.401       .  A
C1352      H1363   1.082       .  S
C1353      C1362   1.378       .  A
C1353      C1354   1.384       .  A
C1354      N1360   1.342       .  A
C1354      C1355   1.404       .  A
C1355      C1356   1.402       .  A
C1355      H1364   1.082       .  S
C1356      C1359   1.380       .  A
N1357      C1358   1.355       .  A
N1357      H1367   1.044       .  S
C1358      C1359   1.395       .  A
C1359      H1365   1.082       .  S
N1360      C1361   1.355       .  A
N1360      H1368   1.044       .  S
C1361      C1362   1.394       .  A
C1362      H1366   1.082       .  S
C1369      N1375   1.348       .  A
C1369      C1374   1.384       .  A
C1369      C1370   1.405       .  A
C1370      C1371   1.405       .  A
C1370      H1381   1.082       .  S
C1371      C1380   1.378       .  A
C1371      C1372   1.384       .  A
C1372      N1378   1.349       .  A
C1372      C1373   1.406       .  A
C1373      C1374   1.407       .  A
C1373      H1382   1.082       .  S
C1374      C1377   1.378       .  A
N1375      C1376   1.356       .  A
N1375      H1385   1.044       .  S
C1376      C1377   1.399       .  A
C1377      H1383   1.082       .  S
N1378      C1379   1.358       .  A
N1378      H1386   1.044       .  S
C1379      C1380   1.398       .  A
C1380      H1384   1.082       .  S
C1387      N1393   1.349       .  A
C1387      C1392   1.384       .  A
C1387      C1388   1.409       .  A
C1388      C1389   1.408       .  A
C1388      H1399   1.082       .  S
C1389      C1398   1.385       .  A
C1389      C1390   1.384       .  A
C1390      N1396   1.343   1_565  A
C1390      C1391   1.403       .  A
C1391      C1392   1.402       .  A
C1391      H1400   1.082   1_565  S
C1392      C1395   1.377       .  A
N1393      C1394   1.357       .  A
N1393      H1403   1.044       .  S
C1394      C1395   1.395       .  A
C1395      H1401   1.082       .  S
N1396      C1397   1.356   1_545  A
N1396      H1404   1.044       .  S
C1397      C1398   1.398       .  A
C1398      H1402   1.082       .  S
C1405      N1411   1.340       .  A
C1405      C1410   1.383       .  A
C1405      C1406   1.404       .  A
C1406      C1407   1.402       .  A
C1406      H1417   1.082       .  S
C1407      C1416   1.382       .  A
C1407      C1408   1.383       .  A
C1408      N1414   1.342       .  A
C1408      C1409   1.406       .  A
C1409      C1410   1.403       .  A
C1409      H1418   1.082       .  S
C1410      C1413   1.383       .  A
N1411      C1412   1.357       .  A
N1411      H1421   1.044       .  S
C1412      C1413   1.396       .  A
C1413      H1419   1.082       .  S
N1414      C1415   1.358       .  A
N1414      H1422   1.044       .  S
C1415      C1416   1.396       .  A
C1416      H1420   1.082       .  S
C1423      N1429   1.351       .  A
C1423      C1428   1.384       .  A
C1423      C1424   1.411       .  A
C1424      C1425   1.411       .  A
C1424      H1435   1.082       .  S
C1425      C1434   1.389       .  A
C1425      C1426   1.384       .  A
C1426      N1432   1.343       .  A
C1426      C1427   1.403       .  A
C1427      C1428   1.402       .  A
C1427      H1436   1.082       .  S
C1428      C1431   1.377       .  A
N1429      C1430   1.359       .  A
N1429      H1439   1.044       .  S
C1430      C1431   1.395       .  A
C1431      H1437   1.082       .  S
N1432      C1433   1.356       .  A
N1432      H1440   1.045       .  S
C1433      C1434   1.400       .  A
C1434      H1438   1.082       .  S
C1441      N1447   1.347       .  A
C1441      C1446   1.384       .  A
C1441      C1442   1.406       .  A
C1442      C1443   1.407       .  A
C1442      H1453   1.082       .  S
C1443      C1452   1.380       .  A
C1443      C1444   1.384       .  A
C1444      N1450   1.346       .  A
C1444      C1445   1.404       .  A
C1445      C1446   1.404       .  A
C1445      H1454   1.082       .  S
C1446      C1449   1.377       .  A
N1447      C1448   1.357       .  A
N1447      H1457   1.044       .  S
C1448      C1449   1.397       .  A
C1449      H1455   1.082       .  S
N1450      C1451   1.356       .  A
N1450      H1458   1.044       .  S
C1451      C1452   1.399       .  A
C1452      H1456   1.082       .  S
C1459      N1465   1.350       .  A
C1459      C1464   1.384       .  A
C1459      C1460   1.410       .  A
C1460      C1461   1.409       .  A
C1460      H1471   1.082       .  S
C1461      C1470   1.386       .  A
C1461      C1462   1.384       .  A
C1462      N1468   1.342   1_455  A
C1462      C1463   1.402       .  A
C1463      C1464   1.401       .  A
C1463      H1472   1.082   1_455  S
C1464      C1467   1.375       .  A
N1465      C1466   1.358       .  A
N1465      H1475   1.044       .  S
C1466      C1467   1.394       .  A
C1467      H1473   1.082       .  S
N1468      C1469   1.355   1_655  A
N1468      H1476   1.045       .  S
C1469      C1470   1.398       .  A
C1470      H1474   1.082       .  S
C1477      N1483   1.344       .  A
C1477      C1482   1.384       .  A
C1477      C1478   1.405       .  A
C1478      C1479   1.404       .  A
C1478      H1489   1.082       .  S
C1479      C1488   1.380       .  A
C1479      C1480   1.385       .  A
C1480      N1486   1.341       .  A
C1480      C1481   1.401       .  A
C1481      C1482   1.400       .  A
C1481      H1490   1.082       .  S
C1482      C1485   1.376       .  A
N1483      C1484   1.356       .  A
N1483      H1493   1.044       .  S
C1484      C1485   1.394       .  A
C1485      H1491   1.082       .  S
N1486      C1487   1.354       .  A
N1486      H1494   1.045       .  S
C1487      C1488   1.396       .  A
C1488      H1492   1.082       .  S
C1495      N1501   1.344       .  A
C1495      C1500   1.384       .  A
C1495      C1496   1.404       .  A
C1496      C1497   1.403       .  A
C1496      H1507   1.082       .  S
C1497      C1506   1.378       .  A
C1497      C1498   1.384       .  A
C1498      N1504   1.347       .  A
C1498      C1499   1.406       .  A
C1499      C1500   1.406       .  A
C1499      H1508   1.082       .  S
C1500      C1503   1.381       .  A
N1501      C1502   1.356       .  A
N1501      H1511   1.044       .  S
C1502      C1503   1.398       .  A
C1503      H1509   1.082       .  S
N1504      C1505   1.357       .  A
N1504      H1512   1.044       .  S
C1505      C1506   1.396       .  A
C1506      H1510   1.082       .  S
C1513      N1519   1.343       .  A
C1513      C1518   1.384       .  A
C1513      C1514   1.403       .  A
C1514      C1515   1.402       .  A
C1514      H1525   1.082       .  S
C1515      C1524   1.377       .  A
C1515      C1516   1.384       .  A
C1516      N1522   1.342       .  A
C1516      C1517   1.403       .  A
C1517      C1518   1.402       .  A
C1517      H1526   1.082       .  S
C1518      C1521   1.377       .  A
N1519      C1520   1.356       .  A
N1519      H1529   1.044       .  S
C1520      C1521   1.395       .  A
C1521      H1527   1.082       .  S
N1522      C1523   1.355       .  A
N1522      H1530   1.044       .  S
C1523      C1524   1.395       .  A
C1524      H1528   1.082       .  S
C1531      N1537   1.342       .  A
C1531      C1536   1.385       .  A
C1531      C1532   1.402       .  A
C1532      C1533   1.401       .  A
C1532      H1543   1.082       .  S
C1533      C1542   1.378       .  A
C1533      C1534   1.384       .  A
C1534      N1540   1.343       .  A
C1534      C1535   1.404       .  A
C1535      C1536   1.403       .  A
C1535      H1544   1.082       .  S
C1536      C1539   1.379       .  A
N1537      C1538   1.354       .  A
N1537      H1547   1.045       .  S
C1538      C1539   1.395       .  A
C1539      H1545   1.082       .  S
N1540      C1541   1.356       .  A
N1540      H1548   1.045       .  S
C1541      C1542   1.394       .  A
C1542      H1546   1.082       .  S
C1549      N1555   1.343       .  A
C1549      C1554   1.385       .  A
C1549      C1550   1.402       .  A
C1550      C1551   1.402       .  A
C1550      H1561   1.082       .  S
C1551      C1560   1.377       .  A
C1551      C1552   1.385       .  A
C1552      N1558   1.343       .  A
C1552      C1553   1.403       .  A
C1553      C1554   1.402       .  A
C1553      H1562   1.082       .  S
C1554      C1557   1.376       .  A
N1555      C1556   1.355       .  A
N1555      H1565   1.045       .  S
C1556      C1557   1.395       .  A
C1557      H1563   1.082       .  S
N1558      C1559   1.355       .  A
N1558      H1566   1.044       .  S
C1559      C1560   1.394       .  A
C1560      H1564   1.082       .  S
C1567      N1573   1.345       .  A
C1567      C1572   1.384       .  A
C1567      C1568   1.405       .  A
C1568      C1569   1.405       .  A
C1568      H1579   1.082       .  S
C1569      C1578   1.380       .  A
C1569      C1570   1.384       .  A
C1570      N1576   1.343       .  A
C1570      C1571   1.404       .  A
C1571      C1572   1.403       .  A
C1571      H1580   1.082       .  S
C1572      C1575   1.379       .  A
N1573      C1574   1.357       .  A
N1573      H1583   1.044       .  S
C1574      C1575   1.395       .  A
C1575      H1581   1.082       .  S
N1576      C1577   1.356       .  A
N1576      H1584   1.044       .  S
C1577      C1578   1.397       .  A
C1578      H1582   1.082       .  S
C1585      N1591   1.347       .  A
C1585      C1590   1.384       .  A
C1585      C1586   1.405       .  A
C1586      C1587   1.405       .  A
C1586      H1597   1.082       .  S
C1587      C1596   1.378       .  A
C1587      C1588   1.384       .  A
C1588      N1594   1.349       .  A
C1588      C1589   1.407       .  A
C1589      C1590   1.407       .  A
C1589      H1598   1.082       .  S
C1590      C1593   1.381       .  A
N1591      C1592   1.357       .  A
N1591      H1601   1.044       .  S
C1592      C1593   1.399       .  A
C1593      H1599   1.082       .  S
N1594      C1595   1.358       .  A
N1594      H1602   1.044       .  S
C1595      C1596   1.398       .  A
C1596      H1600   1.082       .  S
C1603      N1609   1.349       .  A
C1603      C1608   1.384       .  A
C1603      C1604   1.407       .  A
C1604      C1605   1.408       .  A
C1604      H1615   1.082       .  S
C1605      C1614   1.381       .  A
C1605      C1606   1.384       .  A
C1606      N1612   1.347       .  A
C1606      C1607   1.405       .  A
C1607      C1608   1.405       .  A
C1607      H1616   1.082       .  S
C1608      C1611   1.378       .  A
N1609      C1610   1.358       .  A
N1609      H1619   1.044       .  S
C1610      C1611   1.397       .  A
C1611      H1617   1.082       .  S
N1612      C1613   1.356       .  A
N1612      H1620   1.045       .  S
C1613      C1614   1.398       .  A
C1614      H1618   1.082       .  S
C1621      N1627   1.348       .  A
C1621      C1626   1.384       .  A
C1621      C1622   1.406       .  A
C1622      C1623   1.407       .  A
C1622      H1633   1.082       .  S
C1623      C1632   1.381       .  A
C1623      C1624   1.384       .  A
C1624      N1630   1.347       .  A
C1624      C1625   1.405       .  A
C1625      C1626   1.405       .  A
C1625      H1634   1.082       .  S
C1626      C1629   1.378       .  A
N1627      C1628   1.357       .  A
N1627      H1637   1.044       .  S
C1628      C1629   1.396       .  A
C1629      H1635   1.082       .  S
N1630      C1631   1.356       .  A
N1630      H1638   1.045       .  S
C1631      C1632   1.397       .  A
C1632      H1636   1.082       .  S
C1639      N1645   1.341       .  A
C1639      C1644   1.384       .  A
C1639      C1640   1.404       .  A
C1640      C1641   1.402       .  A
C1640      H1651   1.082       .  S
C1641      C1650   1.381       .  A
C1641      C1642   1.383       .  A
C1642      N1648   1.343       .  A
C1642      C1643   1.407       .  A
C1643      C1644   1.404       .  A
C1643      H1652   1.082       .  S
C1644      C1647   1.383       .  A
N1645      C1646   1.357       .  A
N1645      H1655   1.044       .  S
C1646      C1647   1.397       .  A
C1647      H1653   1.082       .  S
N1648      C1649   1.358       .  A
N1648      H1656   1.044       .  S
C1649      C1650   1.395       .  A
C1650      H1654   1.082       .  S
C1657      N1663   1.342       .  A
C1657      C1662   1.384       .  A
C1657      C1658   1.404       .  A
C1658      C1659   1.402       .  A
C1658      H1669   1.082       .  S
C1659      C1668   1.381       .  A
C1659      C1660   1.383       .  A
C1660      N1666   1.345       .  A
C1660      C1661   1.408       .  A
C1661      C1662   1.406       .  A
C1661      H1670   1.082       .  S
C1662      C1665   1.384       .  A
N1663      C1664   1.357       .  A
N1663      H1673   1.044       .  S
C1664      C1665   1.398       .  A
C1665      H1671   1.082       .  S
N1666      C1667   1.359       .  A
N1666      H1674   1.044       .  S
C1667      C1668   1.395       .  A
C1668      H1672   1.082       .  S
C1675      N1681   1.348       .  A
C1675      C1680   1.384       .  A
C1675      C1676   1.408       .  A
C1676      C1677   1.408       .  A
C1676      H1687   1.082       .  S
C1677      C1686   1.385       .  A
C1677      C1678   1.384       .  A
C1678      N1684   1.341       .  A
C1678      C1679   1.401       .  A
C1679      C1680   1.400       .  A
C1679      H1688   1.082   1_655  S
C1680      C1683   1.375       .  A
N1681      C1682   1.357       .  A
N1681      H1691   1.044       .  S
C1682      C1683   1.394       .  A
C1683      H1689   1.082       .  S
N1684      C1685   1.355       .  A
N1684      H1692   1.045   1_655  S
C1685      C1686   1.398       .  A
C1686      H1690   1.082       .  S
C1693      N1699   1.344       .  A
C1693      C1698   1.384       .  A
C1693      C1694   1.404       .  A
C1694      C1695   1.403       .  A
C1694      H1705   1.082       .  S
C1695      C1704   1.378       .  A
C1695      C1696   1.384       .  A
C1696      N1702   1.344       .  A
C1696      C1697   1.404       .  A
C1697      C1698   1.403       .  A
C1697      H1706   1.082       .  S
C1698      C1701   1.378       .  A
N1699      C1700   1.356       .  A
N1699      H1709   1.044       .  S
C1700      C1701   1.395       .  A
C1701      H1707   1.082       .  S
N1702      C1703   1.356       .  A
N1702      H1710   1.044       .  S
C1703      C1704   1.396       .  A
C1704      H1708   1.082   1_655  S
C1711      N1717   1.342       .  A
C1711      C1716   1.385       .  A
C1711      C1712   1.402       .  A
C1712      C1713   1.401       .  A
C1712      H1723   1.082       .  S
C1713      C1722   1.376       .  A
C1713      C1714   1.384       .  A
C1714      N1720   1.345       .  A
C1714      C1715   1.405       .  A
C1715      C1716   1.404       .  A
C1715      H1724   1.082       .  S
C1716      C1719   1.380       .  A
N1717      C1718   1.355       .  A
N1717      H1727   1.045       .  S
C1718      C1719   1.395       .  A
C1719      H1725   1.082       .  S
N1720      C1721   1.356       .  A
N1720      H1728   1.045       .  S
C1721      C1722   1.394       .  A
C1722      H1726   1.082       .  S
C1729      N1735   1.346       .  A
C1729      C1734   1.384       .  A
C1729      C1730   1.406       .  A
C1730      C1731   1.405       .  A
C1730      H1741   1.082       .  S
C1731      C1740   1.381       .  A
C1731      C1732   1.384       .  A
C1732      N1738   1.344       .  A
C1732      C1733   1.403       .  A
C1733      C1734   1.402       .  A
C1733      H1742   1.082       .  S
C1734      C1737   1.378       .  A
N1735      C1736   1.357       .  A
N1735      H1745   1.044       .  S
C1736      C1737   1.395       .  A
C1737      H1743   1.082       .  S
N1738      C1739   1.356       .  A
N1738      H1746   1.044       .  S
C1739      C1740   1.397       .  A
C1740      H1744   1.082       .  S
C1747      N1753   1.344       .  A
C1747      C1752   1.384       .  A
C1747      C1748   1.405       .  A
C1748      C1749   1.403       .  A
C1748      H1759   1.082       .  S
C1749      C1758   1.380       .  A
C1749      C1750   1.384       .  A
C1750      N1756   1.340       .  A
C1750      C1751   1.401       .  A
C1751      C1752   1.399       .  A
C1751      H1760   1.082       .  S
C1752      C1755   1.375       .  A
N1753      C1754   1.357       .  A
N1753      H1763   1.044       .  S
C1754      C1755   1.394       .  A
C1755      H1761   1.082       .  S
N1756      C1757   1.355       .  A
N1756      H1764   1.044       .  S
C1757      C1758   1.396       .  A
C1758      H1762   1.082       .  S
C1765      N1771   1.339       .  A
C1765      C1770   1.386       .  A
C1765      C1766   1.398       .  A
C1766      C1767   1.397       .  A
C1766      H1777   1.082       .  S
C1767      C1776   1.371       .  A
C1767      C1768   1.385       .  A
C1768      N1774   1.346       .  A
C1768      C1769   1.406       .  A
C1769      C1770   1.406       .  A
C1769      H1778   1.082       .  S
C1770      C1773   1.381       .  A
N1771      C1772   1.352       .  A
N1771      H1781   1.045       .  S
C1772      C1773   1.395       .  A
C1773      H1779   1.082       .  S
N1774      C1775   1.356       .  A
N1774      H1782   1.045       .  S
C1775      C1776   1.391       .  A
C1776      H1780   1.082       .  S
C1783      N1789   1.344       .  A
C1783      C1788   1.384       .  A
C1783      C1784   1.404       .  A
C1784      C1785   1.403       .  A
C1784      H1795   1.082       .  S
C1785      C1794   1.379       .  A
C1785      C1786   1.384       .  A
C1786      N1792   1.343       .  A
C1786      C1787   1.403       .  A
C1787      C1788   1.402       .  A
C1787      H1796   1.082       .  S
C1788      C1791   1.378       .  A
N1789      C1790   1.356       .  A
N1789      H1799   1.044       .  S
C1790      C1791   1.396       .  A
C1791      H1797   1.082       .  S
N1792      C1793   1.356       .  A
N1792      H1800   1.044       .  S
C1793      C1794   1.395       .  A
C1794      H1798   1.082       .  S
C1801      N1807   1.347       .  A
C1801      C1806   1.384   1_655  A
C1801      C1802   1.405       .  A
C1802      C1803   1.406       .  A
C1802      H1813   1.082       .  S
C1803      C1812   1.379       .  A
C1803      C1804   1.384       .  A
C1804      N1810   1.344       .  A
C1804      C1805   1.402   1_655  A
C1805      C1806   1.402       .  A
C1805      H1814   1.082       .  S
C1806      C1809   1.374       .  A
N1807      C1808   1.357       .  A
N1807      H1817   1.044       .  S
C1808      C1809   1.396   1_655  A
C1809      H1815   1.082       .  S
N1810      C1811   1.355       .  A
N1810      H1818   1.044   1_655  S
C1811      C1812   1.398       .  A
C1812      H1816   1.082       .  S
C1819      N1825   1.347       .  A
C1819      C1824   1.384       .  A
C1819      C1820   1.404       .  A
C1820      C1821   1.405       .  A
C1820      H1831   1.082       .  S
C1821      C1830   1.378       .  A
C1821      C1822   1.384       .  A
C1822      N1828   1.347       .  A
C1822      C1823   1.405       .  A
C1823      C1824   1.406       .  A
C1823      H1832   1.082       .  S
C1824      C1827   1.378       .  A
N1825      C1826   1.356       .  A
N1825      H1835   1.044       .  S
C1826      C1827   1.399       .  A
C1827      H1833   1.082       .  S
N1828      C1829   1.357       .  A
N1828      H1836   1.044       .  S
C1829      C1830   1.397       .  A
C1830      H1834   1.082       .  S
C1837      N1843   1.349       .  A
C1837      C1842   1.384   1_565  A
C1837      C1838   1.405       .  A
C1838      C1839   1.406       .  A
C1838      H1849   1.082       .  S
C1839      C1848   1.376       .  A
C1839      C1840   1.384   1_565  A
C1840      N1846   1.349       .  A
C1840      C1841   1.405       .  A
C1841      C1842   1.406       .  A
C1841      H1850   1.082       .  S
C1842      C1845   1.376       .  A
N1843      C1844   1.357   1_565  A
N1843      H1853   1.044       .  S
C1844      C1845   1.398       .  A
C1845      H1851   1.082       .  S
N1846      C1847   1.357   1_545  A
N1846      H1854   1.044       .  S
C1847      C1848   1.399       .  A
C1848      H1852   1.082       .  S
C1855      N1861   1.342       .  A
C1855      C1860   1.384       .  A
C1855      C1856   1.402       .  A
C1856      C1857   1.401       .  A
C1856      H1867   1.082       .  S
C1857      C1866   1.377       .  A
C1857      C1858   1.384       .  A
C1858      N1864   1.344       .  A
C1858      C1859   1.405       .  A
C1859      C1860   1.404       .  A
C1859      H1868   1.082       .  S
C1860      C1863   1.380       .  A
N1861      C1862   1.355       .  A
N1861      H1871   1.044       .  S
C1862      C1863   1.396       .  A
C1863      H1869   1.082       .  S
N1864      C1865   1.357       .  A
N1864      H1872   1.044       .  S
C1865      C1866   1.394       .  A
C1866      H1870   1.082       .  S
C1873      N1879   1.343       .  A
C1873      C1878   1.385       .  A
C1873      C1874   1.403       .  A
C1874      C1875   1.402       .  A
C1874      H1885   1.082       .  S
C1875      C1884   1.377       .  A
C1875      C1876   1.384       .  A
C1876      N1882   1.343       .  A
C1876      C1877   1.403       .  A
C1877      C1878   1.402       .  A
C1877      H1886   1.082       .  S
C1878      C1881   1.377       .  A
N1879      C1880   1.355       .  A
N1879      H1889   1.045       .  S
C1880      C1881   1.395       .  A
C1881      H1887   1.082       .  S
N1882      C1883   1.356       .  A
N1882      H1890   1.044       .  S
C1883      C1884   1.395       .  A
C1884      H1888   1.082       .  S
C1891      N1897   1.345       .  A
C1891      C1896   1.384       .  A
C1891      C1892   1.406       .  A
C1892      C1893   1.405       .  A
C1892      H1903   1.082       .  S
C1893      C1902   1.381       .  A
C1893      C1894   1.385       .  A
C1894      N1900   1.341       .  A
C1894      C1895   1.401       .  A
C1895      C1896   1.399       .  A
C1895      H1904   1.082       .  S
C1896      C1899   1.375       .  A
N1897      C1898   1.356       .  A
N1897      H1907   1.044       .  S
C1898      C1899   1.393       .  A
C1899      H1905   1.082       .  S
N1900      C1901   1.354       .  A
N1900      H1908   1.044       .  S
C1901      C1902   1.397       .  A
C1902      H1906   1.082       .  S
C1909      N1915   1.347       .  A
C1909      C1914   1.384       .  A
C1909      C1910   1.405       .  A
C1910      C1911   1.405       .  A
C1910      H1921   1.082       .  S
C1911      C1920   1.378       .  A
C1911      C1912   1.384       .  A
C1912      N1918   1.347       .  A
C1912      C1913   1.405       .  A
C1913      C1914   1.405       .  A
C1913      H1922   1.082       .  S
C1914      C1917   1.378       .  A
N1915      C1916   1.356       .  A
N1915      H1925   1.045       .  S
C1916      C1917   1.396       .  A
C1917      H1923   1.082       .  S
N1918      C1919   1.356       .  A
N1918      H1926   1.045       .  S
C1919      C1920   1.397       .  A
C1920      H1924   1.082       .  S
C1927      N1933   1.348       .  A
C1927      C1932   1.385       .  A
C1927      C1928   1.408   1_655  A
C1928      C1929   1.408       .  A
C1928      H1939   1.082   1_455  S
C1929      C1938   1.385       .  A
C1929      C1930   1.384       .  A
C1930      N1936   1.340       .  A
C1930      C1931   1.400       .  A
C1931      C1932   1.399   1_455  A
C1931      H1940   1.083       .  S
C1932      C1935   1.373       .  A
N1933      C1934   1.357       .  A
N1933      H1943   1.044       .  S
C1934      C1935   1.392       .  A
C1935      H1941   1.082       .  S
N1936      C1937   1.354       .  A
N1936      H1944   1.045       .  S
C1937      C1938   1.398       .  A
C1938      H1942   1.082       .  S
C1945      N1951   1.348       .  A
C1945      C1950   1.384       .  A
C1945      C1946   1.408       .  A
C1946      C1947   1.408   1_545  A
C1946      H1957   1.082       .  S
C1947      C1956   1.384       .  A
C1947      C1948   1.385       .  A
C1948      N1954   1.340       .  A
C1948      C1949   1.399   1_565  A
C1949      C1950   1.398       .  A
C1949      H1958   1.083   1_545  S
C1950      C1953   1.373       .  A
N1951      C1952   1.357       .  A
N1951      H1961   1.044       .  S
C1952      C1953   1.392       .  A
C1953      H1959   1.082       .  S
N1954      C1955   1.354       .  A
N1954      H1962   1.045       .  S
C1955      C1956   1.398       .  A
C1956      H1960   1.082       .  S
C1963      N1969   1.344       .  A
C1963      C1968   1.384       .  A
C1963      C1964   1.404       .  A
C1964      C1965   1.403       .  A
C1964      H1975   1.082       .  S
C1965      C1974   1.378       .  A
C1965      C1966   1.384       .  A
C1966      N1972   1.342       .  A
C1966      C1967   1.402       .  A
C1967      C1968   1.401       .  A
C1967      H1976   1.082       .  S
C1968      C1971   1.376       .  A
N1969      C1970   1.356       .  A
N1969      H1979   1.044       .  S
C1970      C1971   1.395       .  A
C1971      H1977   1.082       .  S
N1972      C1973   1.355       .  A
N1972      H1980   1.044       .  S
C1973      C1974   1.395       .  A
C1974      H1978   1.082       .  S
C1981      N1987   1.344       .  A
C1981      C1986   1.384       .  A
C1981      C1982   1.404       .  A
C1982      C1983   1.403       .  A
C1982      H1993   1.082       .  S
C1983      C1992   1.379       .  A
C1983      C1984   1.384       .  A
C1984      N1990   1.343       .  A
C1984      C1985   1.403       .  A
C1985      C1986   1.402       .  A
C1985      H1994   1.082       .  S
C1986      C1989   1.377       .  A
N1987      C1988   1.356       .  A
N1987      H1997   1.045       .  S
C1988      C1989   1.395       .  A
C1989      H1995   1.082       .  S
N1990      C1991   1.356       .  A
N1990      H1998   1.044       .  S
C1991      C1992   1.395       .  A
C1992      H1996   1.082       .  S
C1999      N2005   1.342       .  A
C1999      C2004   1.385       .  A
C1999      C2000   1.401       .  A
C2000      C2001   1.401       .  A
C2000      H2011   1.082       .  S
C2001      C2010   1.375       .  A
C2001      C2002   1.385       .  A
C2002      N2008   1.342       .  A
C2002      C2003   1.401       .  A
C2003      C2004   1.400       .  A
C2003      H2012   1.082       .  S
C2004      C2007   1.374       .  A
N2005      C2006   1.354       .  A
N2005      H2015   1.045       .  S
C2006      C2007   1.394       .  A
C2007      H2013   1.082       .  S
N2008      C2009   1.354       .  A
N2008      H2016   1.045       .  S
C2009      C2010   1.394       .  A
C2010      H2014   1.082       .  S
C2017      N2023   1.341       .  A
C2017      C2022   1.384       .  A
C2017      C2018   1.401       .  A
C2018      C2019   1.400       .  A
C2018      H2029   1.082       .  S
C2019      C2028   1.375       .  A
C2019      C2020   1.384       .  A
C2020      N2026   1.351       .  A
C2020      C2021   1.411       .  A
C2021      C2022   1.411       .  A
C2021      H2030   1.082       .  S
C2022      C2025   1.387       .  A
N2023      C2024   1.354       .  A
N2023      H2033   1.045   1_655  S
C2024      C2025   1.399       .  A
C2025      H2031   1.082       .  S
N2026      C2027   1.359       .  A
N2026      H2034   1.044       .  S
C2027      C2028   1.394       .  A
C2028      H2032   1.082       .  S
C2035      N2041   1.342       .  A
C2035      C2040   1.384       .  A
C2035      C2036   1.404       .  A
C2036      C2037   1.402       .  A
C2036      H2047   1.082       .  S
C2037      C2046   1.380       .  A
C2037      C2038   1.384       .  A
C2038      N2044   1.344       .  A
C2038      C2039   1.406       .  A
C2039      C2040   1.404       .  A
C2039      H2048   1.082       .  S
C2040      C2043   1.383       .  A
N2041      C2042   1.357       .  A
N2041      H2051   1.044       .  S
C2042      C2043   1.397       .  A
C2043      H2049   1.082       .  S
N2044      C2045   1.358       .  A
N2044      H2052   1.044       .  S
C2045      C2046   1.395       .  A
C2046      H2050   1.082       .  S
C2053      N2059   1.341       .  A
C2053      C2058   1.384       .  A
C2053      C2054   1.405       .  A
C2054      C2055   1.402       .  A
C2054      H2065   1.082       .  S
C2055      C2064   1.381       .  A
C2055      C2056   1.383       .  A
C2056      N2062   1.342       .  A
C2056      C2057   1.406       .  A
C2057      C2058   1.403       .  A
C2057      H2066   1.082       .  S
C2058      C2061   1.382       .  A
N2059      C2060   1.357       .  A
N2059      H2069   1.044       .  S
C2060      C2061   1.396       .  A
C2061      H2067   1.082       .  S
N2062      C2063   1.358       .  A
N2062      H2070   1.044       .  S
C2063      C2064   1.395       .  A
C2064      H2068   1.082       .  S
C2071      N2077   1.350       .  A
C2071      C2076   1.383       .  A
C2071      C2072   1.411       .  A
C2072      C2073   1.410       .  A
C2072      H2083   1.082       .  S
C2073      C2082   1.388       .  A
C2073      C2074   1.384       .  A
C2074      N2080   1.340       .  A
C2074      C2075   1.400       .  A
C2075      C2076   1.399       .  A
C2075      H2084   1.083       .  S
C2076      C2079   1.374       .  A
N2077      C2078   1.359       .  A
N2077      H2087   1.044       .  S
C2078      C2079   1.394       .  A
C2079      H2085   1.082       .  S
N2080      C2081   1.354       .  A
N2080      H2088   1.045       .  S
C2081      C2082   1.399       .  A
C2082      H2086   1.082       .  S
C2089      N2095   1.346       .  A
C2089      C2094   1.384       .  A
C2089      C2090   1.404       .  A
C2090      C2091   1.404       .  A
C2090      H2101   1.082       .  S
C2091      C2100   1.377       .  A
C2091      C2092   1.384       .  A
C2092      N2098   1.347       .  A
C2092      C2093   1.405       .  A
C2093      C2094   1.405       .  A
C2093      H2102   1.082       .  S
C2094      C2097   1.378       .  A
N2095      C2096   1.356       .  A
N2095      H2105   1.044       .  S
C2096      C2097   1.398       .  A
C2097      H2103   1.082       .  S
N2098      C2099   1.356       .  A
N2098      H2106   1.044       .  S
C2099      C2100   1.397       .  A
C2100      H2104   1.082       .  S
C2107      N2113   1.341   1_545  A
C2107      C2112   1.384       .  A
C2107      C2108   1.401       .  A
C2108      C2109   1.400       .  A
C2108      H2119   1.083   1_545  S
C2109      C2118   1.374       .  A
C2109      C2110   1.385       .  A
C2110      N2116   1.348       .  A
C2110      C2111   1.408       .  A
C2111      C2112   1.407       .  A
C2111      H2120   1.082       .  S
C2112      C2115   1.384       .  A
N2113      C2114   1.355   1_565  A
N2113      H2123   1.045       .  S
C2114      C2115   1.397       .  A
C2115      H2121   1.082       .  S
N2116      C2117   1.356       .  A
N2116      H2124   1.044       .  S
C2117      C2118   1.393       .  A
C2118      H2122   1.083       .  S
C2125      N2131   1.343       .  A
C2125      C2130   1.385       .  A
C2125      C2126   1.403       .  A
C2126      C2127   1.402       .  A
C2126      H2137   1.082       .  S
C2127      C2136   1.377       .  A
C2127      C2128   1.385       .  A
C2128      N2134   1.341       .  A
C2128      C2129   1.400       .  A
C2129      C2130   1.400       .  A
C2129      H2138   1.082       .  S
C2130      C2133   1.374       .  A
N2131      C2132   1.355       .  A
N2131      H2141   1.045       .  S
C2132      C2133   1.393       .  A
C2133      H2139   1.082       .  S
N2134      C2135   1.354       .  A
N2134      H2142   1.045       .  S
C2135      C2136   1.395       .  A
C2136      H2140   1.082       .  S
C2143      N2149   1.343       .  A
C2143      C2148   1.385       .  A
C2143      C2144   1.402       .  A
C2144      C2145   1.401       .  A
C2144      H2155   1.082       .  S
C2145      C2154   1.376       .  A
C2145      C2146   1.385       .  A
C2146      N2152   1.342       .  A
C2146      C2147   1.402       .  A
C2147      C2148   1.401       .  A
C2147      H2156   1.082       .  S
C2148      C2151   1.376       .  A
N2149      C2150   1.355       .  A
N2149      H2159   1.045       .  S
C2150      C2151   1.394       .  A
C2151      H2157   1.082       .  S
N2152      C2153   1.355       .  A
N2152      H2160   1.044       .  S
C2153      C2154   1.394       .  A
C2154      H2158   1.082       .  S
C2161      N2167   1.341       .  A
C2161      C2166   1.385       .  A
C2161      C2162   1.402       .  A
C2162      C2163   1.401       .  A
C2162      H2173   1.082       .  S
C2163      C2172   1.376       .  A
C2163      C2164   1.385       .  A
C2164      N2170   1.342       .  A
C2164      C2165   1.403       .  A
C2165      C2166   1.402       .  A
C2165      H2174   1.082       .  S
C2166      C2169   1.377       .  A
N2167      C2168   1.355       .  A
N2167      H2177   1.044       .  S
C2168      C2169   1.395       .  A
C2169      H2175   1.082   1_655  S
N2170      C2171   1.355       .  A
N2170      H2178   1.044       .  S
C2171      C2172   1.395       .  A
C2172      H2176   1.082       .  S
C2179      N2185   1.347       .  A
C2179      C2184   1.384       .  A
C2179      C2180   1.406   1_565  A
C2180      C2181   1.406       .  A
C2180      H2191   1.082       .  S
C2181      C2190   1.380       .  A
C2181      C2182   1.384       .  A
C2182      N2188   1.347       .  A
C2182      C2183   1.405   1_545  A
C2183      C2184   1.405       .  A
C2183      H2192   1.082       .  S
C2184      C2187   1.379       .  A
N2185      C2186   1.356       .  A
N2185      H2195   1.045       .  S
C2186      C2187   1.396       .  A
C2187      H2193   1.082       .  S
N2188      C2189   1.356       .  A
N2188      H2196   1.045       .  S
C2189      C2190   1.397       .  A
C2190      H2194   1.082       .  S
C2197      N2203   1.346       .  A
C2197      C2202   1.385       .  A
C2197      C2198   1.404       .  A
C2198      C2199   1.404       .  A
C2198      H2209   1.082       .  S
C2199      C2208   1.378       .  A
C2199      C2200   1.385       .  A
C2200      N2206   1.347       .  A
C2200      C2201   1.406       .  A
C2201      C2202   1.406       .  A
C2201      H2210   1.082       .  S
C2202      C2205   1.380       .  A
N2203      C2204   1.355       .  A
N2203      H2213   1.045       .  S
C2204      C2205   1.397       .  A
C2205      H2211   1.082       .  S
N2206      C2207   1.356       .  A
N2206      H2214   1.045       .  S
C2207      C2208   1.395       .  A
C2208      H2212   1.082       .  S
C2215      N2221   1.348       .  A
C2215      C2220   1.384       .  A
C2215      C2216   1.405   1_455  A
C2216      C2217   1.406       .  A
C2216      H2227   1.082       .  S
C2217      C2226   1.379       .  A
C2217      C2218   1.384       .  A
C2218      N2224   1.348       .  A
C2218      C2219   1.406   1_655  A
C2219      C2220   1.406       .  A
C2219      H2228   1.082       .  S
C2220      C2223   1.380       .  A
N2221      C2222   1.356       .  A
N2221      H2231   1.045       .  S
C2222      C2223   1.397       .  A
C2223      H2229   1.082       .  S
N2224      C2225   1.357       .  A
N2224      H2232   1.044       .  S
C2225      C2226   1.397       .  A
C2226      H2230   1.082       .  S
C2233      N2239   1.344       .  A
C2233      C2238   1.384       .  A
C2233      C2234   1.404       .  A
C2234      C2235   1.403       .  A
C2234      H2245   1.082       .  S
C2235      C2244   1.379       .  A
C2235      C2236   1.385       .  A
C2236      N2242   1.343       .  A
C2236      C2237   1.403       .  A
C2237      C2238   1.402       .  A
C2237      H2246   1.082       .  S
C2238      C2241   1.378       .  A
N2239      C2240   1.356       .  A
N2239      H2249   1.044       .  S
C2240      C2241   1.395       .  A
C2241      H2247   1.082       .  S
N2242      C2243   1.355       .  A
N2242      H2250   1.045       .  S
C2243      C2244   1.396       .  A
C2244      H2248   1.082       .  S
C2251      N2257   1.342       .  A
C2251      C2256   1.385       .  A
C2251      C2252   1.401       .  A
C2252      C2253   1.400       .  A
C2252      H2263   1.082       .  S
C2253      C2262   1.374       .  A
C2253      C2254   1.384       .  A
C2254      N2260   1.345       .  A
C2254      C2255   1.405       .  A
C2255      C2256   1.404       .  A
C2255      H2264   1.082       .  S
C2256      C2259   1.379       .  A
N2257      C2258   1.354       .  A
N2257      H2267   1.045       .  S
C2258      C2259   1.396       .  A
C2259      H2265   1.082       .  S
N2260      C2261   1.356       .  A
N2260      H2268   1.044       .  S
C2261      C2262   1.394       .  A
C2262      H2266   1.082       .  S
C2269      N2275   1.345       .  A
C2269      C2274   1.384       .  A
C2269      C2270   1.405       .  A
C2270      C2271   1.405       .  A
C2270      H2281   1.082       .  S
C2271      C2280   1.380       .  A
C2271      C2272   1.385       .  A
C2272      N2278   1.342       .  A
C2272      C2273   1.402       .  A
C2273      C2274   1.401       .  A
C2273      H2282   1.082       .  S
C2274      C2277   1.377       .  A
N2275      C2276   1.356       .  A
N2275      H2285   1.045       .  S
C2276      C2277   1.394       .  A
C2277      H2283   1.082       .  S
N2278      C2279   1.355       .  A
N2278      H2286   1.045       .  S
C2279      C2280   1.397       .  A
C2280      H2284   1.082       .  S
C2287      N2293   1.345       .  A
C2287      C2292   1.384       .  A
C2287      C2288   1.402       .  A
C2288      C2289   1.403       .  A
C2288      H2299   1.082       .  S
C2289      C2298   1.375       .  A
C2289      C2290   1.384       .  A
C2290      N2296   1.347       .  A
C2290      C2291   1.405       .  A
C2291      C2292   1.405       .  A
C2291      H2300   1.082       .  S
C2292      C2295   1.378       .  A
N2293      C2294   1.355       .  A
N2293      H2303   1.044       .  S
C2294      C2295   1.398       .  A
C2295      H2301   1.082       .  S
N2296      C2297   1.357       .  A
N2296      H2304   1.044       .  S
C2297      C2298   1.396       .  A
C2298      H2302   1.082       .  S
C2305      N2311   1.342       .  A
C2305      C2310   1.384       .  A
C2305      C2306   1.401       .  A
C2306      C2307   1.400       .  A
C2306      H2317   1.082       .  S
C2307      C2316   1.374       .  A
C2307      C2308   1.384       .  A
C2308      N2314   1.351       .  A
C2308      C2309   1.411       .  A
C2309      C2310   1.411       .  A
C2309      H2318   1.082       .  S
C2310      C2313   1.387       .  A
N2311      C2312   1.355       .  A
N2311      H2321   1.045       .  S
C2312      C2313   1.399       .  A
C2313      H2319   1.082       .  S
N2314      C2315   1.359       .  A
N2314      H2322   1.044       .  S
C2315      C2316   1.394       .  A
C2316      H2320   1.082       .  S
C2323      N2329   1.340       .  A
C2323      C2328   1.384       .  A
C2323      C2324   1.401       .  A
C2324      C2325   1.399       .  A
C2324      H2335   1.082   1_455  S
C2325      C2334   1.375   1_455  A
C2325      C2326   1.384       .  A
C2326      N2332   1.349       .  A
C2326      C2327   1.410       .  A
C2327      C2328   1.409       .  A
C2327      H2336   1.082       .  S
C2328      C2331   1.387       .  A
N2329      C2330   1.354       .  A
N2329      H2339   1.045       .  S
C2330      C2331   1.399       .  A
C2331      H2337   1.082       .  S
N2332      C2333   1.358       .  A
N2332      H2340   1.044       .  S
C2333      C2334   1.393   1_455  A
C2334      H2338   1.082       .  S
C2341      N2347   1.347       .  A
C2341      C2346   1.384       .  A
C2341      C2342   1.404       .  A
C2342      C2343   1.405       .  A
C2342      H2353   1.082       .  S
C2343      C2352   1.377       .  A
C2343      C2344   1.384       .  A
C2344      N2350   1.346       .  A
C2344      C2345   1.403       .  A
C2345      C2346   1.404       .  A
C2345      H2354   1.082       .  S
C2346      C2349   1.376       .  A
N2347      C2348   1.356       .  A
N2347      H2357   1.044       .  S
C2348      C2349   1.397       .  A
C2349      H2355   1.082       .  S
N2350      C2351   1.356       .  A
N2350      H2358   1.044       .  S
C2351      C2352   1.397       .  A
C2352      H2356   1.082       .  S
C2359      N2365   1.345       .  A
C2359      C2364   1.384       .  A
C2359      C2360   1.403       .  A
C2360      C2361   1.403       .  A
C2360      H2371   1.082       .  S
C2361      C2370   1.375       .  A
C2361      C2362   1.384       .  A
C2362      N2368   1.349       .  A
C2362      C2363   1.407       .  A
C2363      C2364   1.408       .  A
C2363      H2372   1.082       .  S
C2364      C2367   1.380       .  A
N2365      C2366   1.355       .  A
N2365      H2375   1.044       .  S
C2366      C2367   1.399       .  A
C2367      H2373   1.082       .  S
N2368      C2369   1.358       .  A
N2368      H2376   1.044       .  S
C2369      C2370   1.397       .  A
C2370      H2374   1.082       .  S
C2377      N2383   1.350       .  A
C2377      C2382   1.384       .  A
C2377      C2378   1.411       .  A
C2378      C2379   1.410       .  A
C2378      H2389   1.082       .  S
C2379      C2388   1.388       .  A
C2379      C2380   1.384       .  A
C2380      N2386   1.341       .  A
C2380      C2381   1.401       .  A
C2381      C2382   1.400       .  A
C2381      H2390   1.082   1_565  S
C2382      C2385   1.376       .  A
N2383      C2384   1.359       .  A
N2383      H2393   1.044       .  S
C2384      C2385   1.394       .  A
C2385      H2391   1.082       .  S
N2386      C2387   1.354       .  A
N2386      H2394   1.045   1_565  S
C2387      C2388   1.399       .  A
C2388      H2392   1.082       .  S
C2395      N2401   1.345       .  A
C2395      C2400   1.384       .  A
C2395      C2396   1.407       .  A
C2396      C2397   1.406       .  A
C2396      H2407   1.082       .  S
C2397      C2406   1.384       .  A
C2397      C2398   1.384       .  A
C2398      N2404   1.340       .  A
C2398      C2399   1.402       .  A
C2399      C2400   1.400       .  A
C2399      H2408   1.082       .  S
C2400      C2403   1.377       .  A
N2401      C2402   1.358       .  A
N2401      H2411   1.044       .  S
C2402      C2403   1.394       .  A
C2403      H2409   1.082       .  S
N2404      C2405   1.354       .  A
N2404      H2412   1.045       .  S
C2405      C2406   1.397       .  A
C2406      H2410   1.082       .  S
C2413      N2419   1.344       .  A
C2413      C2418   1.384       .  A
C2413      C2414   1.404       .  A
C2414      C2415   1.403       .  A
C2414      H2425   1.082       .  S
C2415      C2424   1.379       .  A
C2415      C2416   1.384       .  A
C2416      N2422   1.342       .  A
C2416      C2417   1.403       .  A
C2417      C2418   1.402       .  A
C2417      H2426   1.082       .  S
C2418      C2421   1.378       .  A
N2419      C2420   1.356       .  A
N2419      H2429   1.044       .  S
C2420      C2421   1.395       .  A
C2421      H2427   1.082       .  S
N2422      C2423   1.355       .  A
N2422      H2430   1.044       .  S
C2423      C2424   1.396       .  A
C2424      H2428   1.082       .  S
C2431      N2437   1.344       .  A
C2431      C2436   1.384       .  A
C2431      C2432   1.404       .  A
C2432      C2433   1.403       .  A
C2432      H2443   1.082       .  S
C2433      C2442   1.379       .  A
C2433      C2434   1.384       .  A
C2434      N2440   1.342       .  A
C2434      C2435   1.402       .  A
C2435      C2436   1.401       .  A
C2435      H2444   1.082       .  S
C2436      C2439   1.376       .  A
N2437      C2438   1.356       .  A
N2437      H2447   1.044       .  S
C2438      C2439   1.395       .  A
C2439      H2445   1.082       .  S
N2440      C2441   1.355       .  A
N2440      H2448   1.044       .  S
C2441      C2442   1.395       .  A
C2442      H2446   1.082       .  S
