geometry optimzed in LAMMPS
_audit_creation_date              2020-12-01 
_audit_creation_method            'lammps2cif' 
_symmetry_space_group_name_H-M    'P1' 
_symmetry_Int_Tables_number       1 
_symmetry_cell_setting            triclinic 
loop_ 
_symmetry_equiv_pos_as_xyz 
  x,y,z 
_cell_length_a                    78.40953657 
_cell_length_b                    52.25077867681593 
_cell_length_c                    50.482293219486586 
_cell_angle_alpha                 89.83923950661507 
_cell_angle_beta                  89.94255803066001 
_cell_angle_gamma                 90.09984554343025 
loop_ 
_atom_site_label 
_atom_site_type_symbol 
_atom_site_fract_x 
_atom_site_fract_y 
_atom_site_fract_z 
_atom_site_charge 
O1          O  0.60143825  0.57660456  0.10589694    -0.71500
O2          O  0.60514877  0.61640348  0.03800633    -0.72400
O3          O  0.57792633  0.59805698  0.06995509    -0.61100
O4          O  0.62914205  0.59470713  0.07431159    -0.69500
O5          O  0.62879056  0.55856359  0.05163566    -0.69000
O6          O  0.57782521  0.56167003  0.04758103    -0.60300
O7          O  0.60482335  0.58002766  0.01570691    -0.72800
O8          O  0.60149030  0.54026197  0.08332602    -0.71600
Cu9        Cu  0.60350033  0.59773316  0.07281924     1.04600
Cu10       Cu  0.60328826  0.55892303  0.04875976     1.04300
C11         C  0.60050645  0.55219355  0.10530997     0.94700
C12         C  0.60511244  0.60447027  0.01594013     0.93900
C13         C  0.56974364  0.58017025  0.05828522     0.86000
C14         C  0.63711973  0.57596802  0.06379657     0.92300
O15         O  0.41038899  0.57571642  0.99945712    -0.71500
O16         O  0.40617881  0.53805252  0.06840459    -0.72400
O17         O  0.38259219  0.55681184  0.03033800    -0.61100
O18         O  0.43385299  0.55721697  0.03817906    -0.69500
O19         O  0.43214259  0.59418763  0.05948656    -0.69000
O20         O  0.38136699  0.59399461  0.05106894    -0.60300
O21         O  0.40431266  0.57502217  0.08965679    -0.72800
O22         O  0.40942606  0.61281346  0.02067466    -0.71600
Cu23       Cu  0.40828479  0.55566894  0.03329553     1.04600
Cu24       Cu  0.40673345  0.59527405  0.05592498     1.04300
C25         C  0.41081277  0.60015956  0.99915514     0.94700
C26         C  0.40465224  0.55055695  0.08996405     0.93900
C27         C  0.37381019  0.57526613  0.03984191     0.86000
C28         C  0.44105853  0.57587339  0.05016910     0.92300
C29         C  0.42118636  0.69246098  0.77552166     0.88000
C30         C  0.41829844  0.72114071  0.78088418    -0.52300
C31         C  0.42698946  0.73046490  0.80218494     0.10900
C32         C  0.43802004  0.71032991  0.81619264     0.21800
C33         C  0.44079299  0.69079461  0.77269045    -0.53000
C34         C  0.44957210  0.69986632  0.79413387     0.11000
C35         C  0.41714849  0.67885526  0.80170359    -0.52500
C36         C  0.42595487  0.68807092  0.82288805     0.11600
H37         H  0.41103699  0.73353174  0.76780733     0.16100
H38         H  0.44498722  0.71799671  0.83359136     0.01800
H39         H  0.44731767  0.68383748  0.75524151     0.16400
H40         H  0.40828845  0.66290742  0.80326470     0.16200
C41         C  0.40660379  0.46564868  0.31697865     0.88000
C42         C  0.40285730  0.43679900  0.31397970    -0.52300
C43         C  0.41106293  0.42536094  0.29319848     0.10900
C44         C  0.42179109  0.44416007  0.27652002     0.21800
C45         C  0.42628350  0.46650762  0.31811890    -0.53000
C46         C  0.43414655  0.45556277  0.29682505     0.11000
C47         C  0.40196925  0.47745680  0.29021021    -0.52500
C48         C  0.40984372  0.46641112  0.26912176     0.11600
H49         H  0.39604169  0.42542665  0.32840731     0.16100
H50         H  0.42840658  0.43533312  0.25937829     0.01800
H51         H  0.43339860  0.47458205  0.33455530     0.16400
H52         H  0.39357572  0.49387135  0.28816827     0.16200
N53         N  0.34399602  0.60464565  0.58580054    -0.25800
N54         N  0.32946931  0.60717515  0.59889710    -0.33700
C55         C  0.33273446  0.61835359  0.62236745     0.02500
C56         C  0.35012483  0.62311106  0.62402897     0.08600
C57         C  0.35677623  0.61408704  0.60048296    -0.04500
H58         H  0.32312180  0.62277150  0.63700046     0.09200
H59         H  0.37004524  0.61377792  0.59456844     0.10400
Cu60       Cu  0.30581894  0.59500618  0.58478613     0.44200
Cu61       Cu  0.34680430  0.58860621  0.54866357     0.42000
Cu62       Cu  0.30842830  0.56710537  0.51969192     0.43900
N63         N  0.28485989  0.57971661  0.56493853    -0.33200
N64         N  0.28620558  0.56926389  0.54122049    -0.27400
C65         C  0.27097222  0.56020983  0.53369116    -0.03500
C66         C  0.25931774  0.56513635  0.55353054     0.08700
C67         C  0.26852201  0.57771788  0.57305269     0.02500
H68         H  0.26856494  0.55086845  0.51493898     0.10100
H69         H  0.26379724  0.58439594  0.59195992     0.09200
N70         N  0.33153132  0.56517183  0.50051709    -0.34600
N71         N  0.34599831  0.57285451  0.51118793    -0.26800
C72         C  0.35882290  0.56810948  0.49417315    -0.02100
C73         C  0.35198561  0.55693394  0.47164052     0.06500
C74         C  0.33464219  0.55538214  0.47649012     0.04600
H75         H  0.37209900  0.57238697  0.49804035     0.09700
H76         H  0.32501280  0.54686624  0.46396641     0.08600
C77         C  0.42131240  0.96097191  0.77505483     0.88000
C78         C  0.41606943  0.97254963  0.80196800    -0.52300
C79         C  0.42422491  0.96199654  0.82329034     0.10900
C80         C  0.43696657  0.94087341  0.81585379     0.21800
C81         C  0.44080791  0.96465468  0.77480281    -0.53000
C82         C  0.44899033  0.95388493  0.79592340     0.11000
C83         C  0.41864610  0.93205496  0.77816565    -0.52500
C84         C  0.42687095  0.92154367  0.79926112     0.11600
H85         H  0.40834492  0.98949565  0.80435320     0.16100
H86         H  0.44358760  0.93215973  0.83309011     0.01800
H87         H  0.44759791  0.97450257  0.75901158     0.16400
H88         H  0.41143516  0.92062125  0.76412171     0.16200
C89         C  0.41733121  0.19042477  0.30966420     0.88000
C90         C  0.41034855  0.18338244  0.28203568    -0.52300
C91         C  0.41777626  0.19643927  0.26156515     0.10900
C92         C  0.43103256  0.21635780  0.27062925     0.21800
C93         C  0.43674760  0.18749222  0.30738196    -0.53000
C94         C  0.44397570  0.20104076  0.28707155     0.11000
C95         C  0.41424482  0.21952872  0.31109548    -0.52500
C96         C  0.42158900  0.23298187  0.29091551     0.11600
H97         H  0.40056392  0.16912425  0.27860301     0.16100
H98         H  0.43676444  0.22750088  0.25410227     0.01800
H99         H  0.44418179  0.17606368  0.32116265     0.16400
H100        H  0.40674181  0.22885735  0.32632934     0.16200
N101        N  0.35524859  0.06749046  0.49355585    -0.29400
N102        N  0.34063233  0.07195539  0.48136726    -0.33700
C103        C  0.34373941  0.08563000  0.45927337     0.02500
C104        C  0.36114821  0.08987224  0.45747583     0.08600
C105        C  0.36802389  0.07804818  0.47952848    -0.04500
H106        H  0.33402392  0.09203511  0.44559628     0.09200
H107        H  0.38128484  0.07780980  0.48545222     0.10400
Cu108      Cu  0.31706291  0.06031881  0.49586813     0.44200
Cu109      Cu  0.35734544  0.04897851  0.52957007     0.42000
Cu110      Cu  0.31786052  0.03772316  0.56361621     0.43900
N111        N  0.29547108  0.04883098  0.51659553    -0.33200
N112        N  0.29584605  0.04142004  0.54165859    -0.27400
C113        C  0.27996800  0.03564686  0.54961574    -0.03500
C114        C  0.26899937  0.03943892  0.52856568     0.08700
C115        C  0.27927752  0.04777473  0.50791369     0.02500
H116        H  0.27672428  0.02862611  0.56921879     0.10100
H117        H  0.27525487  0.05306180  0.48809574     0.09200
N118        N  0.34140784  0.03020947  0.57997734    -0.34600
N119        N  0.35592818  0.03359754  0.56719322    -0.26800
C120        C  0.36887396  0.02631707  0.58287523    -0.02100
C121        C  0.36217189  0.01799104  0.60681714     0.06500
C122        C  0.34468138  0.02077920  0.60419151     0.04600
H123        H  0.38215083  0.02697045  0.57707714     0.09700
H124        H  0.33499166  0.01676226  0.61887867     0.08600
O125        O  0.58035243  0.09608932  0.02613532    -0.71500
O126        O  0.63105182  0.09190541  0.02532333    -0.72400
O127        O  0.60472102  0.07509750  0.99102419    -0.61100
O128        O  0.60646228  0.11286477  0.06042236    -0.69500
O129        O  0.60387029  0.07592978  0.08192790    -0.69000
O130        O  0.60489830  0.03803204  0.01260153    -0.60300
O131        O  0.63003337  0.05580287  0.04829338    -0.72800
O132        O  0.57904427  0.05829063  0.04609813    -0.71600
Cu133      Cu  0.60572406  0.09525682  0.02497403     1.04600
Cu134      Cu  0.60444968  0.05570532  0.04800430     1.04300
C135        C  0.57163703  0.07790562  0.03631210     0.94700
C136        C  0.63866937  0.07324011  0.03655920     0.93900
C137        C  0.60472184  0.05063064  0.99087036     0.86000
C138        C  0.60485441  0.10034950  0.08206242     0.92300
O139        O  0.38487406  0.06825987  0.04602610    -0.71500
O140        O  0.43557581  0.07011186  0.05366137    -0.72400
O141        O  0.40785110  0.08967475  0.08341776    -0.61100
O142        O  0.41268399  0.04851448  0.01679979    -0.69500
O143        O  0.41282670  0.08417964  0.99296273    -0.69000
O144        O  0.40922842  0.12558040  0.06004301    -0.60300
O145        O  0.43620838  0.10545041  0.02923124    -0.72800
O146        O  0.38559725  0.10443646  0.02310753    -0.71600
Cu147      Cu  0.41017899  0.06793545  0.05085493     1.04600
Cu148      Cu  0.41097002  0.10620042  0.02557969     1.04300
C149        C  0.37718794  0.08581400  0.03305206     0.94700
C150        C  0.44393967  0.08788753  0.04204353     0.93900
C151        C  0.40807039  0.11411145  0.08240264     0.86000
C152        C  0.41354805  0.05975208  0.99432765     0.92300
C153        C  0.60420049  0.95225466  0.76645031     0.88000
C154        C  0.60735859  0.92437543  0.77500595    -0.52300
C155        C  0.59882432  0.91713955  0.79734736     0.10900
C156        C  0.58825973  0.93866814  0.80983547     0.21800
C157        C  0.58474505  0.95499905  0.76510506    -0.53000
C158        C  0.57646882  0.94806524  0.78770923     0.11000
C159        C  0.60952444  0.96768533  0.79128049    -0.52500
C160        C  0.60102319  0.96067091  0.81393522     0.11600
H161        H  0.61532015  0.91119206  0.76392556     0.16100
H162        H  0.58124369  0.93275501  0.82796732     0.01800
H163        H  0.57808514  0.96214945  0.74773500     0.16400
H164        H  0.61957115  0.98185575  0.79184229     0.16200
C165        C  0.59944877  0.18858129  0.30853836     0.88000
C166        C  0.60302813  0.21738044  0.30436143    -0.52300
C167        C  0.59508088  0.22780682  0.28276686     0.10900
C168        C  0.58416371  0.20850927  0.26725102     0.21800
C169        C  0.57979001  0.18749661  0.30976872    -0.53000
C170        C  0.57182392  0.19773566  0.28813456     0.11000
C171        C  0.60414332  0.17604064  0.28206535    -0.52500
C172        C  0.59608956  0.18612872  0.26047249     0.11600
H173        H  0.60922574  0.22959800  0.31866838     0.16100
H174        H  0.57762919  0.21691972  0.24979637     0.01800
H175        H  0.57277810  0.17948995  0.32641044     0.16400
H176        H  0.61295770  0.16008354  0.28069243     0.16200
N177        N  0.66510321  0.05657144  0.48195521    -0.25800
N178        N  0.67938976  0.05831274  0.46809750    -0.33700
C179        C  0.67673305  0.07388195  0.44720415     0.02500
C180        C  0.66006015  0.08259554  0.44821715     0.08600
C181        C  0.65310064  0.07125707  0.47052391    -0.04500
H182        H  0.68628584  0.07876908  0.43258744     0.09200
H183        H  0.64012636  0.07309389  0.47763642     0.10400
Cu184      Cu  0.70213876  0.04059205  0.47902755     0.44200
Cu185      Cu  0.66222867  0.03393238  0.51543626     0.42000
Cu186      Cu  0.70061675  0.00545463  0.54089123     0.43900
N187        N  0.72347179  0.02420092  0.49687502    -0.33200
N188        N  0.72281159  0.01179368  0.51970276    -0.27400
C189        C  0.73862290  0.00457889  0.52663049    -0.03500
C190        C  0.74993803  0.01268670  0.50723017     0.08700
C191        C  0.73980162  0.02509957  0.48865002     0.02500
H192        H  0.74164347  0.99475279  0.54493640     0.10100
H193        H  0.74393045  0.03418824  0.47044800     0.09200
N194        N  0.67700406  0.00103960  0.55858306    -0.34600
N195        N  0.66285911  0.01123937  0.54912697    -0.26800
C196        C  0.64995016  0.00607005  0.56584708    -0.02100
C197        C  0.65629201  0.99206577  0.58702536     0.06500
C198        C  0.67350830  0.98917850  0.58160356     0.04600
H199        H  0.63700906  0.01270537  0.56304742     0.09700
H200        H  0.68302190  0.98037946  0.59414239     0.08600
C201        C  0.60600545  0.68521366  0.78940839     0.88000
C202        C  0.60918945  0.67556498  0.81780482    -0.52300
C203        C  0.59980006  0.68784850  0.83672464     0.10900
C204        C  0.58834922  0.70925591  0.82560986     0.21800
C205        C  0.58663132  0.68362256  0.78561335    -0.53000
C206        C  0.57746789  0.69617037  0.80443495     0.11000
C207        C  0.61007423  0.71400119  0.79160463    -0.52500
C208        C  0.60047615  0.72686799  0.80989420     0.11600
H209        H  0.61811089  0.66050875  0.82281316     0.16100
H210        H  0.58054516  0.71913362  0.84078460     0.01800
H211        H  0.58066373  0.67364785  0.76917996     0.16400
H212        H  0.61994152  0.72341858  0.78008162     0.16200
C213        C  0.58848171  0.45665522  0.32667089     0.88000
C214        C  0.59363235  0.46962649  0.30034850    -0.52300
C215        C  0.58649971  0.45883577  0.27835749     0.10900
C216        C  0.57462895  0.43617954  0.28459763     0.21800
C217        C  0.56884248  0.45827459  0.32600195    -0.53000
C218        C  0.56159439  0.44735748  0.30412354     0.11000
C219        C  0.59253266  0.42821561  0.32305824    -0.52500
C220        C  0.58536501  0.41758252  0.30115809     0.11600
H221        H  0.60069268  0.48742286  0.29903893     0.16100
H222        H  0.56884168  0.42724420  0.26680192     0.01800
H223        H  0.56130631  0.46760961  0.34120360     0.16400
H224        H  0.60024065  0.41727785  0.33691135     0.16200
N225        N  0.66632518  0.57448550  0.59748887    -0.25800
N226        N  0.68071224  0.57186367  0.61087962    -0.33700
C227        C  0.67880702  0.58240931  0.63497853     0.02500
C228        C  0.66238909  0.59194565  0.63692822     0.08600
C229        C  0.65487406  0.58657734  0.61278073    -0.04500
H230        H  0.68853338  0.58252857  0.65016353     0.09200
H231        H  0.64200019  0.59117131  0.60667405     0.10400
Cu232      Cu  0.70204662  0.55309317  0.59644871     0.44200
Cu233      Cu  0.66230871  0.56064249  0.55952686     0.42000
Cu234      Cu  0.69630907  0.52252620  0.53296328     0.43900
N235        N  0.72102953  0.53258817  0.57741223    -0.33200
N236        N  0.71878758  0.52122251  0.55433314    -0.27400
C237        C  0.73348930  0.51027750  0.54683664    -0.03500
C238        C  0.74572252  0.51511891  0.56599853     0.08700
C239        C  0.73728145  0.52926664  0.58515481     0.02500
H240        H  0.73511320  0.49987207  0.52852779     0.10100
H241        H  0.74269243  0.53755559  0.60290268     0.09200
N242        N  0.67284766  0.52652805  0.51473021    -0.34600
N243        N  0.66041273  0.54100182  0.52401518    -0.26800
C244        C  0.64670424  0.53862200  0.50816357    -0.02100
C245        C  0.65068686  0.52156277  0.48815349     0.06500
C246        C  0.66738948  0.51440512  0.49290121     0.04600
H247        H  0.63451020  0.54771390  0.51165979     0.09700
H248        H  0.67496660  0.50108120  0.48155231     0.08600
O249        O  0.12719868  0.50666452  0.54411458    -0.71500
O250        O  0.07664078  0.49720794  0.54090409    -0.72400
O251        O  0.10449540  0.48128779  0.50898253    -0.61100
O252        O  0.09917296  0.52222957  0.57540741    -0.69500
O253        O  0.09742940  0.55787182  0.55141782    -0.69000
O254        O  0.10227497  0.51681372  0.48522080    -0.60300
O255        O  0.07437869  0.53264673  0.51677935    -0.72800
O256        O  0.12506479  0.54196682  0.52004513    -0.71600
Cu257      Cu  0.10196908  0.50056002  0.54310955     1.04600
Cu258      Cu  0.09969811  0.53852202  0.51746417     1.04300
C259        C  0.13417174  0.52607113  0.53306673     0.94700
C260        C  0.06750800  0.51367479  0.52875750     0.93900
C261        C  0.10414586  0.49257067  0.48649895     0.86000
C262        C  0.09759743  0.54649341  0.57381651     0.92300
O263        O  0.90930437  0.50374757  0.59074443    -0.71500
O264        O  0.90591006  0.46138111  0.52476619    -0.72400
O265        O  0.93284687  0.48399146  0.55347285    -0.61100
O266        O  0.88199371  0.48106788  0.56206751    -0.69500
O267        O  0.87987808  0.51661814  0.53830911    -0.69000
O268        O  0.93039701  0.51941150  0.52959538    -0.60300
O269        O  0.90334566  0.49693795  0.50103502    -0.72800
O270        O  0.90691193  0.53919671  0.56686475    -0.71600
Cu271      Cu  0.90756344  0.48128807  0.55861295     1.04600
Cu272      Cu  0.90501297  0.51922988  0.53311729     1.04300
C273        C  0.90879044  0.52816872  0.58928110     0.94700
C274        C  0.90437164  0.47257091  0.50236586     0.93900
C275        C  0.93968851  0.50212746  0.54013911     0.86000
C276        C  0.87287208  0.49867035  0.55167036     0.92300
C277        C  0.91736987  0.62191117  0.81088751     0.88000
C278        C  0.91264410  0.60917301  0.78427141    -0.52300
C279        C  0.91990209  0.62062093  0.76264679     0.10900
C280        C  0.93083725  0.64408626  0.76928818     0.21800
C281        C  0.93696899  0.62284997  0.81109055    -0.53000
C282        C  0.94405756  0.63439244  0.78934364     0.11000
C283        C  0.91181940  0.64989437  0.80678620    -0.52500
C284        C  0.91911430  0.66153089  0.78542797     0.11600
H285        H  0.90412867  0.59303557  0.78202858     0.16100
H286        H  0.93639924  0.65352105  0.75153799     0.01800
H287        H  0.94451054  0.61552837  0.82746152     0.16400
H288        H  0.90336982  0.66008791  0.82014052     0.16200
C289        C  0.91242792  0.39704620  0.27679960     0.88000
C290        C  0.90914388  0.40627850  0.30528277    -0.52300
C291        C  0.91834007  0.39357307  0.32400125     0.10900
C292        C  0.93033952  0.37311832  0.31292901     0.21800
C293        C  0.93187766  0.40026197  0.27381354    -0.53000
C294        C  0.94128040  0.38758338  0.29245691     0.11000
C295        C  0.90942081  0.36799050  0.27776480    -0.52500
C296        C  0.91881811  0.35555293  0.29650450     0.11600
H297        H  0.90149264  0.42254175  0.31090167     0.16100
H298        H  0.93778292  0.36277245  0.32828031     0.01800
H299        H  0.93766835  0.41203656  0.25848184     0.16400
H300        H  0.90094771  0.35801586  0.26424650     0.16200
N301        N  0.84924278  0.51102352  0.08906115    -0.25800
N302        N  0.83500686  0.51037784  0.10304605    -0.33700
C303        C  0.83774700  0.49715265  0.12545810     0.02500
C304        C  0.85455868  0.48917991  0.12560025     0.08600
C305        C  0.86149324  0.49838081  0.10224587    -0.04500
H306        H  0.82824267  0.49390594  0.14066346     0.09200
H307        H  0.87439257  0.49573349  0.09509194     0.10400
Cu308      Cu  0.81261538  0.52744183  0.09093277     0.44200
Cu309      Cu  0.85100893  0.52829306  0.05247119     0.42000
Cu310      Cu  0.81285634  0.55870026  0.02656719     0.43900
N311        N  0.79158874  0.54505916  0.07448198    -0.33200
N312        N  0.79158642  0.55667461  0.05116685    -0.27400
C313        C  0.77576065  0.56530812  0.04617421    -0.03500
C314        C  0.76530232  0.55866988  0.06726654     0.08700
C315        C  0.77582020  0.54587832  0.08482339     0.02500
H316        H  0.77199883  0.57484969  0.02800436     0.10100
H317        H  0.77227246  0.53749754  0.10370160     0.09200
N318        N  0.83586038  0.55660895  0.00611097    -0.34600
N319        N  0.84963925  0.54546051  0.01578317    -0.26800
C320        C  0.86238052  0.54741312  0.99814485    -0.02100
C321        C  0.85645902  0.56053709  0.97619542     0.06500
C322        C  0.83953591  0.56600710  0.98192108     0.04600
H323        H  0.87502392  0.53964876  0.00116226     0.09700
H324        H  0.83064255  0.57658291  0.96973969     0.08600
C325        C  0.91264152  0.89316308  0.79547930     0.88000
C326        C  0.91005143  0.86422130  0.79401873    -0.52300
C327        C  0.91894882  0.85251681  0.77427194     0.10900
C328        C  0.92993309  0.87103737  0.75768707     0.21800
C329        C  0.93206154  0.89715861  0.79736805    -0.53000
C330        C  0.94104980  0.88531804  0.77792074     0.11000
C331        C  0.90851092  0.90326675  0.76747881    -0.52500
C332        C  0.91740726  0.89155284  0.74754194     0.11600
H333        H  0.90209056  0.85380051  0.80800199     0.16100
H334        H  0.93726479  0.86139591  0.74181310     0.01800
H335        H  0.93827112  0.90913543  0.81201657     0.16400
H336        H  0.90029637  0.91956500  0.76382180     0.16200
C337        C  0.91475033  0.12482813  0.25764370     0.88000
C338        C  0.90937185  0.15277535  0.26224852    -0.52300
C339        C  0.91685972  0.16410442  0.28361877     0.10900
C340        C  0.92868424  0.14624639  0.29926464     0.21800
C341        C  0.93434417  0.12549735  0.25720029    -0.53000
C342        C  0.94160691  0.13691784  0.27864826     0.11000
C343        C  0.91055026  0.11123129  0.28410680    -0.52500
C344        C  0.91786604  0.12254161  0.30565362     0.11600
H345        H  0.90114943  0.16323310  0.24871866     0.16100
H346        H  0.93468393  0.15535307  0.31680595     0.01800
H347        H  0.94186870  0.11785968  0.24095881     0.16400
H348        H  0.90328465  0.09383670  0.28654400     0.16200
N349        N  0.84783160  0.00469916  0.98084670    -0.25800
N350        N  0.83256164  0.00160840  0.97021965    -0.33700
C351        C  0.83412559  0.98797717  0.94779605     0.02500
C352        C  0.85121695  0.98251968  0.94411334     0.08600
C353        C  0.85951387  0.99339968  0.96540534    -0.04500
H354        H  0.82365989  0.98299259  0.93483943     0.09200
H355        H  0.87306079  0.99306284  0.96949374     0.10400
Cu356      Cu  0.81048569  0.01718357  0.98581361     0.44200
Cu357      Cu  0.85263682  0.02445799  0.01534027     0.42000
Cu358      Cu  0.81707752  0.05846873  0.04230109     0.43900
N359        N  0.79101148  0.03636672  0.00501909    -0.33200
N360        N  0.79348320  0.05143120  0.02564166    -0.27400
C361        C  0.77839856  0.06062691  0.03380031    -0.03500
C362        C  0.76574424  0.05102406  0.01746268     0.08700
C363        C  0.77426996  0.03569413  0.99941866     0.02500
H364        H  0.77679669  0.07290795  0.05084506     0.10100
H365        H  0.76879424  0.02492619  0.98321619     0.09200
N366        N  0.84143951  0.06061498  0.05766969    -0.34600
N367        N  0.85445478  0.04735474  0.04840279    -0.26800
C368        C  0.86811638  0.05129125  0.06396116    -0.02100
C369        C  0.86344876  0.06807811  0.08382428     0.06500
C370        C  0.84647134  0.07360215  0.07918394     0.04600
H371        H  0.88043216  0.04240234  0.06114194     0.09700
H372        H  0.83815762  0.08526123  0.09126655     0.08600
O373        O  0.10746751  0.98526079  0.54615330    -0.71500
O374        O  0.10789004  0.02309978  0.47691615    -0.72400
O375        O  0.13343841  0.00548010  0.51269956    -0.61100
O376        O  0.08223844  0.00296240  0.51046260    -0.69500
O377        O  0.08114593  0.03928776  0.53303955    -0.69000
O378        O  0.13214979  0.04285587  0.53319348    -0.60300
O379        O  0.10590250  0.05992827  0.49841382    -0.72800
O380        O  0.10690818  0.02216382  0.56750825    -0.71600
Cu381      Cu  0.10786376  0.00292338  0.51077910     1.04600
Cu382      Cu  0.10656071  0.04234820  0.53374882     1.04300
C383        C  0.10682166  0.99771283  0.56787979     0.94700
C384        C  0.10641994  0.04744835  0.47670216     0.93900
C385        C  0.14092001  0.02462129  0.52333123     0.86000
C386        C  0.07361858  0.02058253  0.52175227     0.92300
O387        O  0.91095995  0.00284942  0.57055893    -0.71500
O388        O  0.91125646  0.04333488  0.50292090    -0.72400
O389        O  0.88538674  0.02121536  0.53503280    -0.61100
O390        O  0.93646996  0.02514808  0.53800834    -0.69500
O391        O  0.93806992  0.98871582  0.51578835    -0.69000
O392        O  0.88696101  0.98543881  0.51177283    -0.60300
O393        O  0.91305165  0.00718971  0.48021112    -0.72800
O394        O  0.91199236  0.96667336  0.54773909    -0.71600
Cu395      Cu  0.91091578  0.02434441  0.53749815     1.04600
Cu396      Cu  0.91256442  0.98572478  0.51313710     1.04300
C397        C  0.91158610  0.97841551  0.56989069     0.94700
C398        C  0.91237991  0.03161193  0.48082046     0.93900
C399        C  0.87804313  0.00306126  0.52247187     0.86000
C400        C  0.94537714  0.00766196  0.52707182     0.92300
C401        C  0.10016346  0.64295753  0.79556505     0.88000
C402        C  0.10333259  0.67143808  0.78936557    -0.52300
C403        C  0.09412767  0.68069330  0.76849263     0.10900
C404        C  0.08276278  0.66054091  0.75518179     0.21800
C405        C  0.08070654  0.64037383  0.79834037    -0.53000
C406        C  0.07156142  0.64985415  0.77757487     0.11000
C407        C  0.10410147  0.62943614  0.76912729    -0.52500
C408        C  0.09481424  0.63840578  0.74815714     0.11600
H409        H  0.11151957  0.68355552  0.80134521     0.16100
H410        H  0.07541838  0.66821201  0.73815830     0.01800
H411        H  0.07471200  0.63150920  0.81547723     0.16400
H412        H  0.11307869  0.61411299  0.76624975     0.16200
C413        C  0.09587165  0.40325565  0.26264763     0.88000
C414        C  0.10032990  0.37469335  0.26623338    -0.52300
C415        C  0.09361912  0.36363497  0.28857370     0.10900
C416        C  0.08259972  0.38208306  0.30492490     0.21800
C417        C  0.07623516  0.40300837  0.26296217    -0.53000
C418        C  0.06936667  0.39228962  0.28516384     0.11000
C419        C  0.10106436  0.41604363  0.28873071    -0.52500
C420        C  0.09423714  0.40502331  0.31089243     0.11600
H421        H  0.10667003  0.36332369  0.25129486     0.16100
H422        H  0.07702627  0.37326714  0.32292491     0.01800
H423        H  0.06836000  0.41021849  0.24692473     0.16400
H424        H  0.10915129  0.43292399  0.28938419     0.16200
N425        N  0.15987863  0.52374323  0.07775867    -0.25800
N426        N  0.17432829  0.52209727  0.09112626    -0.33700
C427        C  0.17136650  0.50945167  0.11394323     0.02500
C428        C  0.15418245  0.50291885  0.11515632     0.08600
C429        C  0.14738502  0.51243183  0.09177214    -0.04500
H430        H  0.18114355  0.50510516  0.12832664     0.09200
H431        H  0.13422410  0.51181222  0.08545214     0.10400
Cu432      Cu  0.19748207  0.53737169  0.07818195     0.44200
Cu433      Cu  0.15710134  0.54159202  0.04129688     0.42000
Cu434      Cu  0.19473062  0.57318391  0.01742571     0.43900
N435        N  0.21860395  0.55367803  0.05949351    -0.33200
N436        N  0.21743667  0.56669806  0.03709363    -0.27400
C437        C  0.23313730  0.57351652  0.02903132    -0.03500
C438        C  0.24489690  0.56438063  0.04718607     0.08700
C439        C  0.23516336  0.55198683  0.06633534     0.02500
H440        H  0.23574984  0.58420191  0.01108260     0.10100
H441        H  0.23980421  0.54161319  0.08346055     0.09200
N442        N  0.17135625  0.57535114  0.99867698    -0.34600
N443        N  0.15751920  0.56321797  0.00683274    -0.26800
C444        C  0.14475716  0.56782067  0.98963728    -0.02100
C445        C  0.15089499  0.58381475  0.96981746     0.06500
C446        C  0.16781039  0.58809764  0.97625292     0.04600
H447        H  0.13196097  0.56023100  0.99157797     0.09700
H448        H  0.17705514  0.59905188  0.96505735     0.08600
C449        C  0.09686758  0.91106437  0.79427272     0.88000
C450        C  0.10104283  0.92362063  0.76755889    -0.52300
C451        C  0.09303164  0.91292105  0.74624006     0.10900
C452        C  0.08123387  0.89046371  0.75376796     0.21800
C453        C  0.07720297  0.91189623  0.79606708    -0.53000
C454        C  0.06900819  0.90146152  0.77471935     0.11000
C455        C  0.10050061  0.88240301  0.79050078    -0.52500
C456        C  0.09240511  0.87168044  0.76938920     0.11600
H457        H  0.10933664  0.94021457  0.76599356     0.16100
H458        H  0.07483232  0.88137282  0.73663313     0.01800
H459        H  0.07005001  0.91792831  0.81321946     0.16400
H460        H  0.10819599  0.87120755  0.80414678     0.16200
C461        C  0.09648030  0.13420376  0.25112694     0.88000
C462        C  0.10155333  0.12207836  0.27803665    -0.52300
C463        C  0.09357679  0.13298683  0.29935100     0.10900
C464        C  0.08142733  0.15489250  0.29214371     0.21800
C465        C  0.07688843  0.13200631  0.25091761    -0.53000
C466        C  0.06913102  0.14305825  0.27209308     0.11000
C467        C  0.10027283  0.16278962  0.25484948    -0.52500
C468        C  0.09232179  0.17374715  0.27598052     0.11600
H469        H  0.10975874  0.10573730  0.28081143     0.16100
H470        H  0.07482066  0.16354243  0.30940215     0.01800
H471        H  0.06973717  0.12278777  0.23516992     0.16400
H472        H  0.10860427  0.17347411  0.24161928     0.16200
N473        N  0.16927097  0.01509282  0.97768406    -0.25800
N474        N  0.18419085  0.01429208  0.96543770    -0.33700
C475        C  0.18256519  0.00050199  0.94308388     0.02500
C476        C  0.16587398  0.99199582  0.94136842     0.08600
C477        C  0.15785819  0.00155960  0.96364616    -0.04500
H478        H  0.19273958  0.99711410  0.92906294     0.09200
H479        H  0.14449219  0.99973787  0.96872339     0.10400
Cu480      Cu  0.20603061  0.03239428  0.97915014     0.44200
Cu481      Cu  0.16420936  0.03633318  0.01155013     0.42000
Cu482      Cu  0.19965695  0.07042961  0.03815544     0.43900
N483        N  0.22541173  0.05219675  0.99814726    -0.33200
N484        N  0.22292979  0.06585097  0.01981380    -0.27400
C485        C  0.23788875  0.07540448  0.02804692    -0.03500
C486        C  0.25046261  0.06744801  0.01075774     0.08700
C487        C  0.24209726  0.05282312  0.99195927     0.02500
H488        H  0.23947036  0.08711824  0.04553243     0.10100
H489        H  0.24779540  0.04259305  0.97554694     0.09200
N490        N  0.17544107  0.07285428  0.05381401    -0.34600
N491        N  0.16219300  0.06048875  0.04404566    -0.26800
C492        C  0.14840932  0.06569103  0.05899047    -0.02100
C493        C  0.15326657  0.08205313  0.07933999     0.06500
C494        C  0.17055733  0.08606808  0.07526258     0.04600
H495        H  0.13586273  0.05787010  0.05531398     0.09700
H496        H  0.17922497  0.09689088  0.08756933     0.08600
C497        C  0.12071220  0.08387098  0.13521534     0.14200
C498        C  0.12613805  0.10539638  0.14937725     0.01100
C499        C  0.13940947  0.12056164  0.13933171     0.16100
C500        C  0.14770036  0.11366264  0.11588266     0.25500
C501        C  0.14298992  0.09116682  0.10224941    -0.40800
C502        C  0.12905083  0.07673422  0.11186821     0.32500
C503        C  0.11833836  0.11159902  0.17513233     0.01200
F504        F  0.14456343  0.14179059  0.15258667    -0.13100
F505        F  0.12392136  0.05501743  0.09955188    -0.13700
C506        C  0.12429536  0.09989367  0.19832981     0.16100
C507        C  0.11743762  0.10636036  0.22305176     0.25500
C508        C  0.10425484  0.12478043  0.22498590    -0.40800
C509        C  0.09837723  0.13627396  0.20117643     0.32500
C510        C  0.10531326  0.12970415  0.17666478     0.14200
F511        F  0.13710742  0.08248596  0.19704559    -0.13100
F512        F  0.08600587  0.15444756  0.20166174    -0.13700
F513        F  0.12434271  0.09497813  0.24458636    -0.15900
F514        F  0.09941636  0.14125286  0.15435900    -0.14500
F515        F  0.10756104  0.06941420  0.14439814    -0.14500
F516        F  0.16030394  0.12910917  0.10659435    -0.15900
C517        C  0.11109711  0.94872381  0.85664652     0.14200
C518        C  0.12855837  0.94312754  0.85725020     0.01100
C519        C  0.13564442  0.92816230  0.83712637     0.16100
C520        C  0.12532406  0.91837560  0.81697833     0.25500
C521        C  0.10749703  0.92284631  0.81671105    -0.40800
C522        C  0.10068945  0.93913758  0.83647754     0.32500
C523        C  0.13938763  0.95386382  0.87844608     0.01200
F524        F  0.15259375  0.92287824  0.83708129    -0.13100
F525        F  0.08438611  0.94756251  0.83580777    -0.13700
C526        C  0.13684479  0.94631372  0.90486188     0.16100
C527        C  0.14590447  0.95818408  0.92526610     0.25500
C528        C  0.15771556  0.97771861  0.91954912    -0.40800
C529        C  0.16077443  0.98453171  0.89297292     0.32500
C530        C  0.15160671  0.97274068  0.87257035     0.14200
F531        F  0.12543792  0.92759053  0.91086516    -0.13100
F532        F  0.17188242  0.00361295  0.88684138    -0.13700
F533        F  0.14315912  0.95056761  0.95065200    -0.15900
F534        F  0.15405664  0.98057787  0.84717884    -0.14500
F535        F  0.10419915  0.96438414  0.87520845    -0.14500
F536        F  0.13287654  0.90458591  0.79745911    -0.15900
C537        C  0.08216907  0.29472762  0.30486759     0.14200
C538        C  0.09688176  0.28199235  0.29641951     0.01100
C539        C  0.11128187  0.29615595  0.28885348     0.16100
C540        C  0.11061196  0.32286597  0.28811660     0.25500
C541        C  0.09534280  0.33577940  0.29432848    -0.40800
C542        C  0.08136785  0.32140709  0.30391197     0.32500
C543        C  0.09627206  0.25425136  0.29171005     0.01200
F544        F  0.12573659  0.28402006  0.28107606    -0.13100
F545        F  0.06645368  0.33273082  0.31063343    -0.13700
C546        C  0.09410908  0.24543650  0.26574584     0.16100
C547        C  0.09264460  0.21932914  0.26073243     0.25500
C548        C  0.09359353  0.20148999  0.28164414    -0.40800
C549        C  0.09576234  0.21039031  0.30773280     0.32500
C550        C  0.09697437  0.23668796  0.31273612     0.14200
F551        F  0.09297892  0.26227848  0.24527779    -0.13100
F552        F  0.09714800  0.19368804  0.32825830    -0.13700
F553        F  0.08974273  0.21159555  0.23547296    -0.15900
F554        F  0.09895400  0.24504078  0.33798686    -0.14500
F555        F  0.06812658  0.28120799  0.31222464    -0.14500
F556        F  0.12478738  0.33604343  0.28071818    -0.15900
C557        C  0.12683552  0.42367456  0.20680863     0.14200
C558        C  0.11936918  0.44645822  0.19802418     0.01100
C559        C  0.10433568  0.45506907  0.20995221     0.16100
C560        C  0.09680551  0.44101817  0.23049006     0.25500
C561        C  0.10377594  0.41732747  0.23889943    -0.40800
C562        C  0.11936810  0.40944460  0.22724923     0.32500
C563        C  0.12780135  0.46176630  0.17718247     0.01200
F564        F  0.09727371  0.47762651  0.20233262    -0.13100
F565        F  0.12825649  0.38910667  0.23655312    -0.13700
C566        C  0.12132798  0.46190907  0.15135385     0.16100
C567        C  0.12991085  0.47508451  0.13118584     0.25500
C568        C  0.14500665  0.48891405  0.13665214    -0.40800
C569        C  0.15118516  0.48913543  0.16291432     0.32500
C570        C  0.14272046  0.47549586  0.18288409     0.14200
F571        F  0.10690430  0.44865640  0.14553325    -0.13100
F572        F  0.16521295  0.50291190  0.16957036    -0.13700
F573        F  0.12368961  0.47338961  0.10619176    -0.15900
F574        F  0.14902533  0.47578924  0.20792832    -0.14500
F575        F  0.14168540  0.41547497  0.19589890    -0.14500
F576        F  0.08306024  0.45131036  0.24285612    -0.15900
C577        C  0.07735234  0.74777634  0.75868133     0.14200
C578        C  0.09253803  0.76199349  0.75691503     0.01100
C579        C  0.10822971  0.74905968  0.75605135     0.16100
C580        C  0.10875425  0.72237785  0.75857056     0.25500
C581        C  0.09359231  0.70829670  0.76182440    -0.40800
C582        C  0.07786074  0.72113978  0.76103598     0.32500
C583        C  0.09204274  0.79021753  0.75913874     0.01200
F584        F  0.12307616  0.76237515  0.75433727    -0.13100
F585        F  0.06300546  0.70815133  0.76439015    -0.13700
C586        C  0.08551052  0.80134389  0.78233066     0.16100
C587        C  0.08551560  0.82785352  0.78537993     0.25500
C588        C  0.09201693  0.84373728  0.76529080    -0.40800
C589        C  0.09818238  0.83280217  0.74179270     0.32500
C590        C  0.09836543  0.80611292  0.73882666     0.14200
F591        F  0.07948710  0.78643568  0.80235016    -0.13100
F592        F  0.10440313  0.84792229  0.72210582    -0.13700
F593        F  0.07903036  0.83810366  0.80793267    -0.15900
F594        F  0.10464673  0.79577567  0.71619666    -0.14500
F595        F  0.06203433  0.75985399  0.75922709    -0.14500
F596        F  0.12407908  0.71031973  0.75847006    -0.15900
C597        C  0.13899110  0.62599759  0.91170885     0.14200
C598        C  0.12791776  0.61002555  0.89751244     0.01100
C599        C  0.12337749  0.58607293  0.90809613     0.16100
C600        C  0.13028177  0.57783489  0.93221906     0.25500
C601        C  0.14197273  0.59339831  0.94594713    -0.40800
C602        C  0.14594408  0.61779667  0.93572000     0.32500
C603        C  0.12136421  0.61828727  0.87144757     0.01200
F604        F  0.11235953  0.57060604  0.89491360    -0.13100
F605        F  0.15652888  0.63382531  0.94902028    -0.13700
C606        C  0.12605081  0.60516969  0.84841084     0.16100
C607        C  0.11995649  0.61295209  0.82361303     0.25500
C608        C  0.10884957  0.63427280  0.82134849    -0.40800
C609        C  0.10451889  0.64749979  0.84489585     0.32500
C610        C  0.11067751  0.63959137  0.86949960     0.14200
F611        F  0.13669587  0.58473751  0.84993232    -0.13100
F612        F  0.09378850  0.66788042  0.84420922    -0.13700
F613        F  0.12495938  0.59896967  0.80252228    -0.15900
F614        F  0.10583281  0.65241191  0.89161802    -0.14500
F615        F  0.14345356  0.64929091  0.90189340    -0.14500
F616        F  0.12610805  0.55421988  0.94145833    -0.15900
C617        C  0.11046599  0.06410382  0.40386120     0.14200
C618        C  0.10086386  0.08670208  0.40234335     0.01100
C619        C  0.09305545  0.09633477  0.42524250     0.16100
C620        C  0.09511895  0.08381633  0.44953488     0.25500
C621        C  0.10481904  0.06118704  0.45119235    -0.40800
C622        C  0.11234501  0.05132836  0.42804538     0.32500
C623        C  0.09882993  0.09998165  0.37672110     0.01200
F624        F  0.08345196  0.11790873  0.42403867    -0.13100
F625        F  0.12167262  0.02947070  0.42884000    -0.13700
C626        C  0.08279306  0.10099769  0.36447074     0.16100
C627        C  0.08099565  0.11268601  0.33972104     0.25500
C628        C  0.09528228  0.12287135  0.32656271    -0.40800
C629        C  0.11124606  0.12244909  0.33911158     0.32500
C630        C  0.11298754  0.11121220  0.36414988     0.14200
F631        F  0.06899738  0.08993544  0.37611834    -0.13100
F632        F  0.12506072  0.13318472  0.32722521    -0.13700
F633        F  0.06538823  0.11325744  0.32826715    -0.15900
F634        F  0.12845423  0.11130065  0.37621263    -0.14500
F635        F  0.11774250  0.05416305  0.38175299    -0.14500
F636        F  0.08715837  0.09339536  0.47124549    -0.15900
C637        C  0.10137653  0.98461650  0.64147507     0.14200
C638        C  0.10095821  0.95782985  0.64218890     0.01100
C639        C  0.10286885  0.94397752  0.61865288     0.16100
C640        C  0.10513427  0.95681684  0.59452141     0.25500
C641        C  0.10541485  0.98385533  0.59357061    -0.40800
C642        C  0.10356080  0.99755839  0.61747589     0.32500
C643        C  0.09910449  0.94454232  0.66781617     0.01200
F644        F  0.10270592  0.91799536  0.61911773    -0.13100
F645        F  0.10368687  0.02353995  0.61779760    -0.13700
C646        C  0.08330823  0.93443951  0.67568273     0.16100
C647        C  0.08128370  0.92395720  0.70106287     0.25500
C648        C  0.09521085  0.92287228  0.71873189    -0.40800
C649        C  0.11119199  0.93224177  0.71018053     0.32500
C650        C  0.11300771  0.94332251  0.68514207     0.14200
F651        F  0.06969576  0.93563209  0.65911791    -0.13100
F652        F  0.12517359  0.93053997  0.72591310    -0.13700
F653        F  0.06549504  0.91616401  0.70865949    -0.15900
F654        F  0.12836131  0.95310642  0.67780047    -0.14500
F655        F  0.09951929  0.99827044  0.66414223    -0.14500
F656        F  0.10700739  0.94268177  0.57218336    -0.15900
C657        C  0.02793506  0.02645786  0.54502195     0.14200
C658        C  0.01895087  0.01565917  0.52373463     0.01100
C659        C  0.02802090  0.00676287  0.50156627     0.16100
C660        C  0.04582607  0.00834142  0.50085701     0.25500
C661        C  0.05482065  0.01918224  0.52216564    -0.40800
C662        C  0.04569586  0.02840644  0.54416583     0.32500
C663        C  0.00013500  0.01358699  0.52477965     0.01200
F664        F  0.01959655  0.99693042  0.48041357    -0.13100
F665        F  0.05400241  0.03855139  0.56527680    -0.13700
C666        C  0.99008705  0.03556690  0.52814271     0.16100
C667        C  0.97231776  0.03362553  0.52935682     0.25500
C668        C  0.96423698  0.00961405  0.52698216    -0.40800
C669        C  0.97437586  0.98761042  0.52371397     0.32500
C670        C  0.99214946  0.98959777  0.52270471     0.14200
F671        F  0.99749302  0.05903474  0.52964339    -0.13100
F672        F  0.96713209  0.96405632  0.52196582    -0.13700
F673        F  0.96304388  0.05538821  0.53206237    -0.15900
F674        F  0.00160762  0.96799557  0.52017118    -0.14500
F675        F  0.01951441  0.03453519  0.56697121    -0.14500
F676        F  0.05423316  0.99984427  0.47906596    -0.15900
C677        C  0.98706373  0.13497116  0.30377749     0.14200
C678        C  0.99600710  0.14461127  0.28171027     0.01100
C679        C  0.98684451  0.15319119  0.25950039     0.16100
C680        C  0.96910703  0.15155465  0.25905110     0.25500
C681        C  0.96020475  0.14094419  0.28061659    -0.40800
C682        C  0.96925481  0.13321982  0.30325721     0.32500
C683        C  0.01486864  0.14458959  0.28106146     0.01200
F684        F  0.99511660  0.16221988  0.23774674    -0.13100
F685        F  0.96096371  0.12306468  0.32442366    -0.13700
C686        C  0.02386055  0.12151298  0.28426060     0.16100
C687        C  0.04154821  0.12097436  0.28107275     0.25500
C688        C  0.05051138  0.14357326  0.27535946    -0.40800
C689        C  0.04165699  0.16669334  0.27255472     0.32500
C690        C  0.02392595  0.16721010  0.27527439     0.14200
F691        F  0.01545042  0.09932261  0.28947570    -0.13100
F692        F  0.05014168  0.18855874  0.26624752    -0.13700
F693        F  0.04993049  0.09836112  0.28336170    -0.15900
F694        F  0.01556864  0.18974333  0.27205511    -0.14500
F695        F  0.99559573  0.12698733  0.32567990    -0.14500
F696        F  0.96059141  0.16025009  0.23741812    -0.15900
C697        C  0.89139822  0.06620291  0.14476929     0.14200
C698        C  0.88930896  0.09119017  0.15451739     0.01100
C699        C  0.87988629  0.10901023  0.13963750     0.16100
C700        C  0.87212084  0.10170464  0.11597430     0.25500
C701        C  0.87355412  0.07643655  0.10683469    -0.40800
C702        C  0.88359177  0.05887217  0.12106347     0.32500
C703        C  0.89627697  0.09852055  0.18066595     0.01200
F704        F  0.87759461  0.13324914  0.14857974    -0.13100
F705        F  0.88509135  0.03426411  0.11283070    -0.13700
C706        C  0.90697727  0.11985355  0.18299922     0.16100
C707        C  0.91256575  0.12789474  0.20782484     0.25500
C708        C  0.90783342  0.11461510  0.23124503    -0.40800
C709        C  0.89724192  0.09276635  0.22857100     0.32500
C710        C  0.89153457  0.08500007  0.20358081     0.14200
F711        F  0.91210391  0.13295275  0.16111141    -0.13100
F712        F  0.89200714  0.07869905  0.24956887    -0.13700
F713        F  0.92273853  0.14894345  0.20893569    -0.15900
F714        F  0.88087872  0.06454997  0.20186807    -0.14500
F715        F  0.90077351  0.04879485  0.15843992    -0.14500
F716        F  0.86305682  0.11930846  0.10206255    -0.15900
C717        C  0.90861772  0.04846753  0.40810373     0.14200
C718        C  0.91518007  0.07344216  0.40757352     0.01100
C719        C  0.92053470  0.08496050  0.43122050     0.16100
C720        C  0.91946307  0.07151454  0.45518244     0.25500
C721        C  0.91303746  0.04629402  0.45575169    -0.40800
C722        C  0.90755427  0.03497705  0.43194397     0.32500
C723        C  0.91653628  0.08717000  0.38211961     0.01200
F724        F  0.92718912  0.10897030  0.43095893    -0.13100
F725        F  0.90088681  0.01097713  0.43174004    -0.13700
C726        C  0.90582849  0.10803900  0.37660256     0.16100
C727        C  0.90626595  0.11973712  0.35164249     0.25500
C728        C  0.91744888  0.11071126  0.33210540    -0.40800
C729        C  0.92821614  0.08997480  0.33767212     0.32500
C730        C  0.92783784  0.07835599  0.36259388     0.14200
F731        F  0.89457934  0.11644683  0.39508211    -0.13100
F732        F  0.93896743  0.08086074  0.31883466    -0.13700
F733        F  0.89539039  0.13922324  0.34622676    -0.15900
F734        F  0.93841274  0.05839012  0.36769158    -0.14500
F735        F  0.90307882  0.03724323  0.38545068    -0.14500
F736        F  0.92521487  0.08288245  0.47762794    -0.15900
C737        C  0.98476048  0.91114327  0.76138905     0.14200
C738        C  0.99538152  0.89290408  0.77358737     0.01100
C739        C  0.98792875  0.87233602  0.78748771     0.16100
C740        C  0.97020454  0.86981225  0.78874792     0.25500
C741        C  0.95970126  0.88766565  0.77600395    -0.40800
C742        C  0.96702875  0.90867622  0.76288689     0.32500
C743        C  0.01418864  0.89560817  0.77254469     0.01200
F744        F  0.99782038  0.85513949  0.80054856    -0.13100
F745        F  0.95698948  0.92705290  0.75200899    -0.13700
C746        C  0.02210336  0.91810957  0.78152890     0.16100
C747        C  0.03986679  0.92025794  0.78149093     0.25500
C748        C  0.05011108  0.89968666  0.77307805    -0.40800
C749        C  0.04214764  0.87724444  0.76386938     0.32500
C750        C  0.02436164  0.87536306  0.76334101     0.14200
F751        F  0.01264564  0.93778587  0.79108164    -0.13100
F752        F  0.05148304  0.85664378  0.75640196    -0.13700
F753        F  0.04702928  0.94257862  0.78959722    -0.15900
F754        F  0.01704267  0.85363745  0.75394552    -0.14500
F755        F  0.99155256  0.93125868  0.74792553    -0.14500
F756        F  0.96327724  0.85045261  0.80318140    -0.15900
C757        C  0.90000185  0.91626260  0.86487366     0.14200
C758        C  0.88375891  0.92642069  0.86034308     0.01100
C759        C  0.87614951  0.92350454  0.83545287     0.16100
C760        C  0.88522198  0.91230743  0.81467828     0.25500
C761        C  0.90237226  0.90462605  0.81822851    -0.40800
C762        C  0.90903925  0.90483161  0.84428290     0.32500
C763        C  0.87507826  0.94080458  0.88141989     0.01200
F764        F  0.86000818  0.93190469  0.83114507    -0.13100
F765        F  0.92406225  0.89332116  0.85025093    -0.13700
C766        C  0.88231908  0.96368283  0.89061764     0.16100
C767        C  0.87443598  0.97739996  0.91084430     0.25500
C768        C  0.85912314  0.96847622  0.92207930    -0.40800
C769        C  0.85172695  0.94575467  0.91257655     0.32500
C770        C  0.85971639  0.93192091  0.89242030     0.14200
F771        F  0.89695561  0.97286288  0.87972081    -0.13100
F772        F  0.83714731  0.93644424  0.92350090    -0.13700
F773        F  0.88157367  0.99971576  0.91901502    -0.15900
F774        F  0.85273821  0.90953824  0.88412669    -0.14500
F775        F  0.90704063  0.91719613  0.88942825    -0.14500
F776        F  0.87692132  0.90831981  0.79148313    -0.15900
C777        C  0.92990582  0.91310035  0.67817727     0.14200
C778        C  0.91423434  0.92161773  0.66813551     0.01100
C779        C  0.89938045  0.91813888  0.68323964     0.16100
C780        C  0.90029965  0.90734953  0.70859670     0.25500
C781        C  0.91615135  0.89997453  0.71936734    -0.40800
C782        C  0.93088003  0.90227632  0.70347894     0.32500
C783        C  0.91360666  0.93578075  0.64277104     0.01200
F784        F  0.88407552  0.92619647  0.67385508    -0.13100
F785        F  0.94642452  0.89529947  0.71268691    -0.13700
C786        C  0.90493536  0.92573610  0.62080021     0.16100
C787        C  0.90435253  0.93947773  0.59695084     0.25500
C788        C  0.91215286  0.96371138  0.59494123    -0.40800
C789        C  0.92077466  0.97371143  0.61705999     0.32500
C790        C  0.92158610  0.95977708  0.64068225     0.14200
F791        F  0.89718344  0.90252807  0.62241055    -0.13100
F792        F  0.92880045  0.99672656  0.61563729    -0.13700
F793        F  0.89585465  0.92934312  0.57602679    -0.15900
F794        F  0.93001051  0.96985035  0.66171850    -0.14500
F795        F  0.94437780  0.91585094  0.66363779    -0.14500
F796        F  0.88566482  0.90427997  0.72266013    -0.15900
C797        C  0.98727887  0.38594924  0.26933373     0.14200
C798        C  0.99619418  0.38852887  0.29330902     0.01100
C799        C  0.98698528  0.39116466  0.31704295     0.16100
C800        C  0.96913288  0.39103610  0.31679972     0.25500
C801        C  0.96020515  0.38804677  0.29282213    -0.40800
C802        C  0.96948304  0.38549809  0.26909196     0.32500
C803        C  0.01508078  0.38860428  0.29326019     0.01200
F804        F  0.99528644  0.39358185  0.34049765    -0.13100
F805        F  0.96135845  0.38197558  0.24564081    -0.13700
C806        C  0.02418329  0.40974912  0.30313090     0.16100
C807        C  0.04196030  0.41062638  0.30104035     0.25500
C808        C  0.05083167  0.39039943  0.28916173    -0.40800
C809        C  0.04182792  0.36921148  0.27946498     0.32500
C810        C  0.02408597  0.36815400  0.28179521     0.14200
F811        F  0.01581217  0.43003863  0.31368009    -0.13100
F812        F  0.05016676  0.34997198  0.26693664    -0.13700
F813        F  0.05047962  0.43166397  0.30962748    -0.15900
F814        F  0.01564237  0.34731476  0.27251979    -0.14500
F815        F  0.99584398  0.38416022  0.24601663    -0.14500
F816        F  0.96062806  0.39451147  0.33993983    -0.15900
C817        C  0.93327183  0.28683053  0.29369877     0.14200
C818        C  0.91798683  0.27361254  0.29896454     0.01100
C819        C  0.90327146  0.28755582  0.30559333     0.16100
C820        C  0.90365007  0.31434226  0.30559025     0.25500
C821        C  0.91875563  0.32745026  0.29919959    -0.40800
C822        C  0.93365492  0.31356100  0.29385916     0.32500
C823        C  0.91717925  0.24552557  0.29533782     0.01200
F824        F  0.88836965  0.27527834  0.31084933    -0.13100
F825        F  0.94835863  0.32588210  0.28745016    -0.13700
C826        C  0.91248855  0.22912640  0.31626626     0.16100
C827        C  0.91227541  0.20254569  0.31254252     0.25500
C828        C  0.91643481  0.19211569  0.28774667    -0.40800
C829        C  0.92098139  0.20858096  0.26682581     0.32500
C830        C  0.92130401  0.23500330  0.27056994     0.14200
F831        F  0.90846500  0.23882218  0.34039446    -0.13100
F832        F  0.92567522  0.19902372  0.24291937    -0.13700
F833        F  0.90788689  0.18704844  0.33304854    -0.15900
F834        F  0.92560238  0.25040523  0.24989221    -0.14500
F835        F  0.94773842  0.27378618  0.28775331    -0.14500
F836        F  0.88923994  0.32754006  0.31146561    -0.15900
C837        C  0.88783184  0.46693033  0.17461654     0.14200
C838        C  0.87890753  0.44760501  0.18811638     0.01100
C839        C  0.86223898  0.44134812  0.18047640     0.16100
C840        C  0.85443500  0.45454071  0.15972014     0.25500
C841        C  0.86318466  0.47432390  0.14647719    -0.40800
C842        C  0.88003373  0.48022757  0.15388062     0.32500
C843        C  0.88684740  0.43432386  0.21061682     0.01200
F844        F  0.85357725  0.42237892  0.19311359    -0.13100
F845        F  0.88869640  0.49954445  0.14183525    -0.13700
C846        C  0.88099841  0.43881031  0.23635536     0.16100
C847        C  0.88849524  0.42640129  0.25790664     0.25500
C848        C  0.90258033  0.40977501  0.25413027    -0.40800
C849        C  0.90759770  0.40433035  0.22779012     0.32500
C850        C  0.89995829  0.41672557  0.20636616     0.14200
F851        F  0.86790845  0.45529788  0.24062099    -0.13100
F852        F  0.92003121  0.38694436  0.22272427    -0.13700
F853        F  0.88105024  0.42989798  0.28180814    -0.15900
F854        F  0.90524024  0.41136914  0.18136792    -0.14500
F855        F  0.90389826  0.47340274  0.18209684    -0.14500
F856        F  0.83845159  0.44763656  0.15224868    -0.15900
C857        C  0.99160284  0.62102917  0.78921099     0.14200
C858        C  0.99816965  0.64406661  0.77919812     0.01100
C859        C  0.98702466  0.66386057  0.77212319     0.16100
C860        C  0.96942126  0.66080218  0.77547212     0.25500
C861        C  0.96273283  0.63769940  0.78566161    -0.40800
C862        C  0.97403121  0.61775002  0.79223847     0.32500
C863        C  0.01675493  0.64776035  0.77782022     0.01200
F864        F  0.99324618  0.68636088  0.76263767    -0.13100
F865        F  0.96808947  0.59489201  0.80119615    -0.13700
C866        C  0.02570598  0.64294744  0.75429785     0.16100
C867        C  0.04355450  0.64386840  0.75400594     0.25500
C868        C  0.05262566  0.64998454  0.77723593    -0.40800
C869        C  0.04345771  0.65582981  0.80047328     0.32500
C870        C  0.02569474  0.65446202  0.80077620     0.14200
F871        F  0.01716103  0.63654472  0.73189041    -0.13100
F872        F  0.05165567  0.66305583  0.82292689    -0.13700
F873        F  0.05189894  0.63754244  0.73138734    -0.15900
F874        F  0.01716348  0.65934015  0.82362861    -0.14500
F875        F  0.00229430  0.60175039  0.79621200    -0.14500
F876        F  0.95905548  0.68084301  0.76976306    -0.15900
C877        C  0.91110616  0.72628239  0.75424586     0.14200
C878        C  0.91780949  0.74257436  0.77374429     0.01100
C879        C  0.92464354  0.73214278  0.79705551     0.16100
C880        C  0.92479142  0.70572902  0.80088891     0.25500
C881        C  0.91826306  0.68937609  0.78133117    -0.40800
C882        C  0.91152655  0.69970776  0.75789863     0.32500
C883        C  0.91776875  0.77054017  0.77016205     0.01200
F884        F  0.93108800  0.74763226  0.81616157    -0.13100
F885        F  0.90518196  0.68409127  0.73883847    -0.13700
C886        C  0.90251718  0.78430120  0.77244751     0.16100
C887        C  0.90280092  0.81103906  0.77256824     0.25500
C888        C  0.91839201  0.82438588  0.77046213    -0.40800
C889        C  0.93353960  0.81044945  0.76677698     0.32500
C890        C  0.93322520  0.78372213  0.76685346     0.14200
F891        F  0.88746586  0.77181814  0.77584533    -0.13100
F892        F  0.94879230  0.82251676  0.76457741    -0.13700
F893        F  0.88784645  0.82387398  0.77511471    -0.15900
F894        F  0.94809476  0.77061882  0.76459232    -0.14500
F895        F  0.90438367  0.73613413  0.73165200    -0.14500
F896        F  0.93170539  0.69602409  0.82343118    -0.15900
C897        C  0.90250893  0.61578171  0.88308725     0.14200
C898        C  0.89469501  0.59163691  0.88350029     0.01100
C899        C  0.89599317  0.57588040  0.86116604     0.16100
C900        C  0.90392179  0.58475226  0.83805916     0.25500
C901        C  0.91025798  0.61011268  0.83650137    -0.40800
C902        C  0.91056837  0.62464915  0.86013661     0.32500
C903        C  0.88509448  0.58293919  0.90712909     0.01200
F904        F  0.88982174  0.55158747  0.86192291    -0.13100
F905        F  0.91855933  0.64771271  0.86106474    -0.13700
C906        C  0.86771422  0.57667731  0.90499496     0.16100
C907        C  0.85841764  0.56920003  0.92737034     0.25500
C908        C  0.86634030  0.56792951  0.95234122    -0.40800
C909        C  0.88382106  0.57396441  0.95435199     0.32500
C910        C  0.89309472  0.58136041  0.93194140     0.14200
F911        F  0.85965450  0.57828082  0.88125282    -0.13100
F912        F  0.89188716  0.57352686  0.97812441    -0.13700
F913        F  0.84175083  0.56274462  0.92444574    -0.15900
F914        F  0.90994125  0.58690098  0.93445805    -0.14500
F915        F  0.90192625  0.63115153  0.90472042    -0.14500
F916        F  0.90622137  0.56773277  0.81819305    -0.15900
C917        C  0.90665552  0.39605812  0.39631577     0.14200
C918        C  0.91207080  0.42094043  0.40276160     0.01100
C919        C  0.92096196  0.43559678  0.38389321     0.16100
C920        C  0.92382127  0.42593757  0.35859779     0.25500
C921        C  0.91787072  0.40150165  0.35184793    -0.40800
C922        C  0.90956292  0.38635904  0.37088431     0.32500
C923        C  0.90827148  0.43212818  0.42888095     0.01200
F924        F  0.92662834  0.45945841  0.38989775    -0.13100
F925        F  0.90346628  0.36286743  0.36437221    -0.13700
C926        C  0.91567200  0.42193086  0.45186647     0.16100
C927        C  0.91376391  0.43445719  0.47612917     0.25500
C928        C  0.90446823  0.45747079  0.47766299    -0.40800
C929        C  0.89642567  0.46696465  0.45474704     0.32500
C930        C  0.89828225  0.45433814  0.43058654     0.14200
F931        F  0.92554478  0.40064975  0.45050481    -0.13100
F932        F  0.88694576  0.48867325  0.45562736    -0.13700
F933        F  0.92191837  0.42492290  0.49770883    -0.15900
F934        F  0.89063314  0.46409112  0.40864949    -0.14500
F935        F  0.89788647  0.38172977  0.41421503    -0.14500
F936        F  0.93197889  0.44069059  0.34034977    -0.15900
C937        C  0.92024161  0.54807124  0.65923006     0.14200
C938        C  0.91363837  0.57298335  0.66033533     0.01100
C939        C  0.90556215  0.58334607  0.63796347     0.16100
C940        C  0.90410179  0.56892903  0.61472483     0.25500
C941        C  0.91049473  0.54372236  0.61366525    -0.40800
C942        C  0.91863543  0.53351691  0.63620194     0.32500
C943        C  0.91500426  0.58773254  0.68516904     0.01200
F944        F  0.89921136  0.60749606  0.63859283    -0.13100
F945        F  0.92532306  0.50956682  0.63590051    -0.13700
C946        C  0.93109919  0.59473538  0.69495225     0.16100
C947        C  0.93261002  0.60614083  0.71984775     0.25500
C948        C  0.91803478  0.61053769  0.73542324    -0.40800
C949        C  0.90186925  0.60425222  0.72525816     0.32500
C950        C  0.90036616  0.59303537  0.70022715     0.14200
F951        F  0.94538623  0.58997118  0.68057713    -0.13100
F952        F  0.88755577  0.60885809  0.73961953    -0.13700
F953        F  0.94840428  0.61163350  0.72927861    -0.15900
F954        F  0.88468796  0.58641036  0.69111050    -0.14500
F955        F  0.92805027  0.53768580  0.68070935    -0.14500
F956        F  0.89614474  0.57949899  0.59348005    -0.15900
C957        C  0.08675446  0.42670625  0.38162206     0.14200
C958        C  0.10283009  0.43647330  0.38843298     0.01100
C959        C  0.11631812  0.43479103  0.37025047     0.16100
C960        C  0.11367558  0.42392575  0.34532164     0.25500
C961        C  0.09738318  0.41493670  0.33801568    -0.40800
C962        C  0.08401364  0.41611694  0.35663889     0.32500
C963        C  0.10506203  0.45003325  0.41378165     0.01200
F964        F  0.13203537  0.44379062  0.37664715    -0.13100
F965        F  0.06803229  0.40822591  0.35042214    -0.13700
C966        C  0.10227471  0.43734045  0.43793305     0.16100
C967        C  0.10258334  0.45092833  0.46174461     0.25500
C968        C  0.10551741  0.47757337  0.46171634    -0.40800
C969        C  0.10897120  0.48998094  0.43744097     0.32500
C970        C  0.10874391  0.47630446  0.41374152     0.14200
F971        F  0.09892787  0.41183423  0.43836643    -0.13100
F972        F  0.11233255  0.51546932  0.43646376    -0.13700
F973        F  0.09935188  0.43809995  0.48463583    -0.15900
F974        F  0.11137009  0.48897206  0.39056067    -0.14500
F975        F  0.07346265  0.42852666  0.39878308    -0.14500
F976        F  0.12711662  0.42198088  0.32847692    -0.15900
C977        C  0.09409360  0.58714204  0.69546310     0.14200
C978        C  0.09476013  0.60173810  0.67205813     0.01100
C979        C  0.09558716  0.62859924  0.67379289     0.16100
C980        C  0.09583057  0.64059752  0.69854126     0.25500
C981        C  0.09504242  0.62593720  0.72187918    -0.40800
C982        C  0.09401320  0.59911553  0.72009152     0.32500
C983        C  0.09484283  0.58874428  0.64601891     0.01200
F984        F  0.09595490  0.64322931  0.65152779    -0.13100
F985        F  0.09251247  0.58442469  0.74220912    -0.13700
C986        C  0.08230833  0.57032337  0.63997012     0.16100
C987        C  0.08322866  0.55646320  0.61640323     0.25500
C988        C  0.09627793  0.56152476  0.59812889    -0.40800
C989        C  0.10844626  0.58047757  0.60359372     0.32500
C990        C  0.10790808  0.59373387  0.62756800     0.14200
F991        F  0.06917277  0.56575869  0.65689863    -0.13100
F992        F  0.12131952  0.58524342  0.58623848    -0.13700
F993        F  0.07129119  0.53828642  0.61125658    -0.15900
F994        F  0.12054932  0.61064429  0.63321558    -0.14500
F995        F  0.09376168  0.56117055  0.69452372    -0.14500
F996        F  0.09718766  0.66647809  0.69968413    -0.15900
C997        C  0.98428105  0.52724774  0.52660088     0.14200
C998        C  0.99428833  0.50578604  0.53267698     0.01100
C999        C  0.98631364  0.48294004  0.54059190     0.16100
C1000       C  0.96857916  0.48162894  0.54276809     0.25500
C1001       C  0.95846334  0.50322825  0.53704757    -0.40800
C1002       C  0.96653736  0.52600147  0.52866123     0.32500
C1003       C  0.01307205  0.50740416  0.53137808     0.01200
F1004       F  0.99573407  0.46178122  0.54601269    -0.13100
F1005       F  0.95735545  0.54735051  0.52306747    -0.13700
C1006       C  0.02286123  0.50256661  0.55412713     0.16100
C1007       C  0.04061336  0.50420239  0.55306697     0.25500
C1008       C  0.04883702  0.51111140  0.52934267    -0.40800
C1009       C  0.03905951  0.51612604  0.50661338     0.32500
C1010       C  0.02128760  0.51408000  0.50757455     0.14200
F1011       F  0.01518126  0.49693981  0.57756193    -0.13100
F1012       F  0.04673721  0.52242049  0.48336688    -0.13700
F1013       F  0.04974367  0.49999360  0.57550371    -0.15900
F1014       F  0.01209145  0.51826630  0.48520510    -0.14500
F1015       F  0.99174238  0.54969474  0.51941309    -0.14500
F1016       F  0.96136183  0.45908131  0.55020091    -0.15900
C1017       C  0.79128540  0.50090644  0.58704396     0.14200
C1018       C  0.79962273  0.50028758  0.56247596     0.01100
C1019       C  0.79018051  0.50331763  0.53914182     0.16100
C1020       C  0.77264893  0.50766450  0.54025530     0.25500
C1021       C  0.76416887  0.50889586  0.56486239    -0.40800
C1022       C  0.77367052  0.50514163  0.58827449     0.32500
C1023       C  0.81837128  0.49953679  0.56099722     0.01200
F1024       F  0.79812114  0.50298743  0.51522191    -0.13100
F1025       F  0.76598733  0.50569706  0.61236799    -0.13700
C1026       C  0.82742114  0.47684454  0.56572509     0.16100
C1027       C  0.84519911  0.47638067  0.56281612     0.25500
C1028       C  0.85411538  0.49872689  0.55523148    -0.40800
C1029       C  0.84486900  0.52148261  0.55096199     0.32500
C1030       C  0.82720232  0.52179803  0.55375631     0.14200
F1031       F  0.81899459  0.45505862  0.57248089    -0.13100
F1032       F  0.85288908  0.54365400  0.54434567    -0.13700
F1033       F  0.85356965  0.45396170  0.56673458    -0.15900
F1034       F  0.81862400  0.54396864  0.54938799    -0.14500
F1035       F  0.80032742  0.49845928  0.60983522    -0.14500
F1036       F  0.76426002  0.51217175  0.51722252    -0.15900
C1037       C  0.61996738  0.48883931  0.37505847     0.14200
C1038       C  0.61197918  0.48449160  0.39944581     0.01100
C1039       C  0.59684212  0.47030385  0.40037584     0.16100
C1040       C  0.58936939  0.46142006  0.37697467     0.25500
C1041       C  0.59669336  0.46712349  0.35196585    -0.40800
C1042       C  0.61270262  0.47977623  0.35163994     0.32500
C1043       C  0.62023885  0.49343498  0.42394088     0.01200
F1044       F  0.58944060  0.46471332  0.42402332    -0.13100
F1045       F  0.62214788  0.48187319  0.32923041    -0.13700
C1046       C  0.61928008  0.51929305  0.43121942     0.16100
C1047       C  0.62869291  0.52838317  0.45280000     0.25500
C1048       C  0.63942153  0.51173967  0.46702882    -0.40800
C1049       C  0.63985009  0.48564292  0.46020633     0.32500
C1050       C  0.63027943  0.47656251  0.43886568     0.14200
F1051       F  0.60957062  0.53580798  0.41694232    -0.13100
F1052       F  0.64951585  0.46888918  0.47425059    -0.13700
F1053       F  0.62798983  0.55364643  0.45889727    -0.15900
F1054       F  0.63123909  0.45145199  0.43218092    -0.14500
F1055       F  0.63527563  0.50101394  0.37407169    -0.14500
F1056       F  0.57525467  0.44645417  0.37897953    -0.15900
C1057       C  0.62627810  0.63130417  0.74794743     0.14200
C1058       C  0.63068646  0.64424694  0.72461205     0.01100
C1059       C  0.62654511  0.67015319  0.72186780     0.16100
C1060       C  0.61854084  0.68323558  0.74253142     0.25500
C1061       C  0.61529967  0.67099516  0.76713874    -0.40800
C1062       C  0.61839342  0.64431799  0.76879232     0.32500
C1063       C  0.63890230  0.63044469  0.70257684     0.01200
F1064       F  0.62965696  0.68255317  0.69867662    -0.13100
F1065       F  0.61297933  0.63026349  0.78981223    -0.13700
C1066       C  0.62959822  0.61260956  0.68768775     0.16100
C1067       C  0.63727725  0.59993288  0.66644820     0.25500
C1068       C  0.65443935  0.60480563  0.65988760    -0.40800
C1069       C  0.66381389  0.62237011  0.67518402     0.32500
C1070       C  0.65604243  0.63523041  0.69624536     0.14200
F1071       F  0.61299801  0.60774720  0.69354486    -0.13100
F1072       F  0.68033416  0.62771156  0.66926065    -0.13700
F1073       F  0.62802749  0.58247504  0.65268517    -0.15900
F1074       F  0.66523424  0.65235776  0.71054140    -0.14500
F1075       F  0.62939705  0.60585134  0.75038033    -0.14500
F1076       F  0.61315513  0.70745874  0.73765805    -0.15900
C1077       C  0.79718863  0.02614164  0.49688784     0.14200
C1078       C  0.80467645  0.00533918  0.51004201     0.01100
C1079       C  0.79424050  0.98642315  0.52130738     0.16100
C1080       C  0.77647025  0.98851585  0.51994031     0.25500
C1081       C  0.76880795  0.00970069  0.50728886    -0.40800
C1082       C  0.77942032  0.02835675  0.49549925     0.32500
C1083       C  0.82336372  0.00418639  0.51338278     0.01200
F1084       F  0.80129867  0.96618492  0.53415147    -0.13100
F1085       F  0.77269809  0.04937655  0.48364949    -0.13700
C1086       C  0.83123012  0.01885242  0.53311599     0.16100
C1087       C  0.84893070  0.01819113  0.53637726     0.25500
C1088       C  0.85914920  0.00280732  0.51983032    -0.40800
C1089       C  0.85110611  0.98790586  0.50013257     0.32500
C1090       C  0.83336012  0.98860731  0.49700517     0.14200
F1091       F  0.82168960  0.03380108  0.54932476    -0.13100
F1092       F  0.86039290  0.97315957  0.48337715    -0.13700
F1093       F  0.85599902  0.03252688  0.55589727    -0.15900
F1094       F  0.82593645  0.97441886  0.47768183    -0.14500
F1095       F  0.80714038  0.04457890  0.48580235    -0.14500
F1096       F  0.76682126  0.96964031  0.53084524    -0.15900
C1097       C  0.60797761  0.29774655  0.28190530     0.14200
C1098       C  0.59202536  0.30977575  0.27994091     0.01100
C1099       C  0.57738461  0.29485166  0.27573028     0.16100
C1100       C  0.57848105  0.26818867  0.27510494     0.25500
C1101       C  0.59430585  0.25595107  0.27866686    -0.40800
C1102       C  0.60911450  0.27102311  0.28126322     0.32500
C1103       C  0.59033235  0.33752783  0.28489208     0.01200
F1104       F  0.56187591  0.30614835  0.27329787    -0.13100
F1105       F  0.62462787  0.25981812  0.28400140    -0.13700
C1106       C  0.59808508  0.35562862  0.26808393     0.16100
C1107       C  0.59626145  0.38183905  0.27312061     0.25500
C1108       C  0.58691745  0.39011863  0.29520609    -0.40800
C1109       C  0.57931913  0.37206100  0.31211861     0.32500
C1110       C  0.58094666  0.34595641  0.30694457     0.14200
F1111       F  0.60727947  0.34790017  0.24676752    -0.13100
F1112       F  0.57022526  0.37977860  0.33355980    -0.13700
F1113       F  0.60392152  0.39912983  0.25686779    -0.15900
F1114       F  0.57361637  0.32881535  0.32374445    -0.14500
F1115       F  0.62231267  0.31180141  0.28597752    -0.14500
F1116       F  0.56384539  0.25449608  0.27292945    -0.15900
C1117       C  0.61065047  0.13548445  0.35839311     0.14200
C1118       C  0.62418447  0.14605473  0.37276229     0.01100
C1119       C  0.62976958  0.17084699  0.36668906     0.16100
C1120       C  0.62211297  0.18490179  0.34623495     0.25500
C1121       C  0.60809661  0.17471280  0.33188998    -0.40800
C1122       C  0.60279667  0.14946265  0.33814954     0.32500
C1123       C  0.63353491  0.13026823  0.39230373     0.01200
F1124       F  0.64334701  0.18096508  0.37968051    -0.13100
F1125       F  0.59027334  0.13782833  0.32401636    -0.13700
C1126       C  0.64391452  0.11012783  0.38351358     0.16100
C1127       C  0.65284311  0.09499842  0.40168854     0.25500
C1128       C  0.65127311  0.09945369  0.42902481    -0.40800
C1129       C  0.64090478  0.11969654  0.43784565     0.32500
C1130       C  0.63222942  0.13516817  0.41957327     0.14200
F1131       F  0.64540726  0.10518153  0.35722552    -0.13100
F1132       F  0.63945581  0.12479263  0.46411142    -0.13700
F1133       F  0.66257073  0.07542888  0.39259218    -0.15900
F1134       F  0.62238974  0.15470469  0.42846622    -0.14500
F1135       F  0.60523874  0.11129737  0.36366968    -0.14500
F1136       F  0.62958846  0.20737074  0.33953096    -0.15900
C1137       C  0.61502511  0.85142240  0.81553833     0.14200
C1138       C  0.59976278  0.83739237  0.81646958     0.01100
C1139       C  0.58411187  0.85017589  0.81402324     0.16100
C1140       C  0.58374416  0.87659603  0.80942866     0.25500
C1141       C  0.59905852  0.89043195  0.80704313    -0.40800
C1142       C  0.61468031  0.87779671  0.81087458     0.32500
C1143       C  0.60025845  0.80921904  0.81556493     0.01200
F1144       F  0.56927001  0.83675164  0.81426580    -0.13100
F1145       F  0.62961604  0.89088806  0.80910772    -0.13700
C1146       C  0.59824518  0.79432245  0.83850656     0.16100
C1147       C  0.59859818  0.76751785  0.83693238     0.25500
C1148       C  0.60069587  0.75531118  0.81223437    -0.40800
C1149       C  0.60235642  0.77059411  0.78927249     0.32500
C1150       C  0.60238640  0.79720550  0.79104337     0.14200
F1151       F  0.59599702  0.80575868  0.86236534    -0.13100
F1152       F  0.60323364  0.75991288  0.76482816    -0.13700
F1153       F  0.59721771  0.75366503  0.85961243    -0.15900
F1154       F  0.60413247  0.81139387  0.76861395    -0.14500
F1155       F  0.63026753  0.83931431  0.81772983    -0.14500
F1156       F  0.56851969  0.88822149  0.80514041    -0.15900
C1157       C  0.62745187  0.98671371  0.70867418     0.14200
C1158       C  0.62552094  0.96877765  0.68826605     0.01100
C1159       C  0.61633073  0.94628507  0.69311818     0.16100
C1160       C  0.60945439  0.94149115  0.71815027     0.25500
C1161       C  0.61216211  0.95864600  0.73946165    -0.40800
C1162       C  0.62071818  0.98194422  0.73390398     0.32500
C1163       C  0.63267771  0.97386804  0.66166615     0.01200
F1164       F  0.61356552  0.92924380  0.67330774    -0.13100
F1165       F  0.62171768  0.00107196  0.75186696    -0.13700
C1166       C  0.64512043  0.95759641  0.65095604     0.16100
C1167       C  0.65240579  0.96302434  0.62626825     0.25500
C1168       C  0.64740043  0.98491542  0.61190374    -0.40800
C1169       C  0.63450400  0.00070094  0.62237360     0.32500
C1170       C  0.62721425  0.99517082  0.64700005     0.14200
F1171       F  0.65052952  0.93679437  0.66475371    -0.13100
F1172       F  0.62942704  0.02217566  0.60945648    -0.13700
F1173       F  0.66430371  0.94677251  0.61641208    -0.15900
F1174       F  0.61484589  0.01074280  0.65664968    -0.14500
F1175       F  0.63580013  0.00908922  0.70408621    -0.14500
F1176       F  0.59971972  0.92016824  0.72131325    -0.15900
C1177       C  0.33220526  0.05951470  0.03052478     0.14200
C1178       C  0.32303374  0.08067934  0.02116072     0.01100
C1179       C  0.33163877  0.10356274  0.01535670     0.16100
C1180       C  0.34924913  0.10538747  0.01927542     0.25500
C1181       C  0.35851137  0.08423900  0.02908412    -0.40800
C1182       C  0.34975651  0.06121104  0.03445257     0.32500
C1183       C  0.30438424  0.07884675  0.01835902     0.01200
F1184       F  0.32291018  0.12430264  0.00648082    -0.13100
F1185       F  0.35814979  0.04008353  0.04312237    -0.13700
C1186       C  0.29428586  0.07449561  0.04087046     0.16100
C1187       C  0.27672413  0.07109600  0.03839671     0.25500
C1188       C  0.26897311  0.07187970  0.01328040    -0.40800
C1189       C  0.27909017  0.07656493  0.99073715     0.32500
C1190       C  0.29669655  0.08016445  0.99329558     0.14200
F1191       F  0.30151992  0.07328667  0.06527748    -0.13100
F1192       F  0.27191825  0.07796274  0.96631294    -0.13700
F1193       F  0.26743627  0.06598195  0.06050034    -0.15900
F1194       F  0.30631009  0.08426295  0.97129665    -0.14500
F1195       F  0.32411687  0.03703485  0.03565724    -0.14500
F1196       F  0.35711506  0.12797111  0.01381528    -0.15900
C1197       C  0.71792493  0.04026006  0.01517660     0.14200
C1198       C  0.71176294  0.06320756  0.02592518     0.01100
C1199       C  0.72334195  0.08256393  0.03289361     0.16100
C1200       C  0.74086712  0.07881223  0.02967206     0.25500
C1201       C  0.74713588  0.05550627  0.01960831    -0.40800
C1202       C  0.73543094  0.03634917  0.01217735     0.32500
C1203       C  0.69324509  0.06672448  0.02995530     0.01200
F1204       F  0.71769070  0.10494779  0.04328628    -0.13100
F1205       F  0.74085417  0.01343278  0.00284358    -0.13700
C1206       C  0.68401633  0.04936278  0.04570676     0.16100
C1207       C  0.66634567  0.05165093  0.04829440     0.25500
C1208       C  0.65754893  0.07158077  0.03529626    -0.40800
C1209       C  0.66699382  0.08940155  0.02011801     0.32500
C1210       C  0.68463706  0.08691314  0.01745010     0.14200
F1211       F  0.69216577  0.03010262  0.05860621    -0.13100
F1212       F  0.65919150  0.10895683  0.00718615    -0.13700
F1213       F  0.65791834  0.03412283  0.06331901    -0.15900
F1214       F  0.69324626  0.10376583  0.00185293    -0.14500
F1215       F  0.70692717  0.02159601  0.00750149    -0.14500
F1216       F  0.75163952  0.09819705  0.03604139    -0.15900
C1217       C  0.61526127  0.14404664  0.13964747     0.14200
C1218       C  0.60086102  0.14060777  0.15595655     0.01100
C1219       C  0.58767931  0.12429411  0.14741409     0.16100
C1220       C  0.58911152  0.11101745  0.12348328     0.25500
C1221       C  0.60357291  0.11424667  0.10737048    -0.40800
C1222       C  0.61653270  0.13109874  0.11541735     0.32500
C1223       C  0.59992798  0.15266468  0.18255660     0.01200
F1224       F  0.57335928  0.12132114  0.16227283    -0.13100
F1225       F  0.63069572  0.13424601  0.10025633    -0.13700
C1226       C  0.60057183  0.17941645  0.18563184     0.16100
C1227       C  0.59937769  0.19039720  0.21092640     0.25500
C1228       C  0.59756517  0.17478733  0.23354148    -0.40800
C1229       C  0.59686336  0.14804287  0.23031291     0.32500
C1230       C  0.59816058  0.13714629  0.20516395     0.14200
F1231       F  0.60207132  0.19490760  0.16411574    -0.13100
F1232       F  0.59440212  0.13234769  0.25145955    -0.13700
F1233       F  0.60032314  0.21623429  0.21331984    -0.15900
F1234       F  0.59780149  0.11126104  0.20288722    -0.14500
F1235       F  0.62834481  0.15922428  0.14761045    -0.14500
F1236       F  0.57620447  0.09536840  0.11575722    -0.15900
C1237       C  0.60515037  0.01239620  0.86622343     0.14200
C1238       C  0.60482279  0.99799410  0.88986194     0.01100
C1239       C  0.60430314  0.97108832  0.88815958     0.16100
C1240       C  0.60386844  0.95896903  0.86346619     0.25500
C1241       C  0.60340857  0.97345564  0.83994702    -0.40800
C1242       C  0.60416948  0.00029916  0.84158760     0.32500
C1243       C  0.60463162  0.01110487  0.91609079     0.01200
F1244       F  0.60365410  0.95644781  0.91039779    -0.13100
F1245       F  0.60325514  0.01496833  0.81939284    -0.13700
C1246       C  0.59305415  0.03116623  0.92099450     0.16100
C1247       C  0.59328515  0.04425174  0.94514670     0.25500
C1248       C  0.60454718  0.03683745  0.96536043    -0.40800
C1249       C  0.61571138  0.01627554  0.96093611     0.32500
C1250       C  0.61600492  0.00385970  0.93637067     0.14200
F1251       F  0.58124116  0.03781008  0.90257542    -0.13100
F1252       F  0.62680064  0.00882849  0.98009602    -0.13700
F1253       F  0.58213454  0.06373506  0.94907344    -0.15900
F1254       F  0.62776650  0.98526027  0.93219906    -0.14500
F1255       F  0.60637166  0.03830866  0.86692474    -0.14500
F1256       F  0.60397629  0.93299690  0.86261178    -0.15900
C1257       C  0.48935830  0.07542643  0.06348976     0.14200
C1258       C  0.49850287  0.08591162  0.04210679     0.01100
C1259       C  0.48967864  0.09766619  0.02121421     0.16100
C1260       C  0.47194032  0.09875079  0.02152441     0.25500
C1261       C  0.46269892  0.08783044  0.04265070    -0.40800
C1262       C  0.47156264  0.07620176  0.06368736     0.32500
C1263       C  0.51721801  0.08391221  0.04104186     0.01200
F1264       F  0.49823392  0.10732133  0.00000928    -0.13100
F1265       F  0.46304267  0.06582311  0.08455287    -0.13700
C1266       C  0.52506401  0.05980423  0.04193469     0.16100
C1267       C  0.54276046  0.05777949  0.04019760     0.25500
C1268       C  0.55289438  0.07987996  0.03730856    -0.40800
C1269       C  0.54494584  0.10402515  0.03615115     0.32500
C1270       C  0.52726605  0.10599717  0.03818054     0.14200
F1271       F  0.51553435  0.03814931  0.04385937    -0.13100
F1272       F  0.55426115  0.12584205  0.03369949    -0.13700
F1273       F  0.54990775  0.03413352  0.04077393    -0.15900
F1274       F  0.51994980  0.12953942  0.03773843    -0.14500
F1275       F  0.49768846  0.06455454  0.08422492    -0.14500
F1276       F  0.46381572  0.10954825  0.00054910    -0.15900
C1277       C  0.22279297  0.03941890  0.55032080     0.14200
C1278       C  0.21461652  0.02928357  0.52793305     0.01100
C1279       C  0.22444168  0.02175600  0.50601835     0.16100
C1280       C  0.24216022  0.02496752  0.50621073     0.25500
C1281       C  0.25032895  0.03556772  0.52843263    -0.40800
C1282       C  0.24049550  0.04249972  0.55060758     0.32500
C1283       C  0.19578695  0.02783607  0.52695414     0.01200
F1284       F  0.21681472  0.01191330  0.48415790    -0.13100
F1285       F  0.24792615  0.05316610  0.57221456    -0.13700
C1286       C  0.18608895  0.05032045  0.52870805     0.16100
C1287       C  0.16830149  0.04930025  0.52744707     0.25500
C1288       C  0.15982291  0.02567918  0.52440885    -0.40800
C1289       C  0.16961758  0.00311657  0.52276003     0.32500
C1290       C  0.18744150  0.00422478  0.52400056     0.14200
F1291       F  0.19391110  0.07340676  0.53112575    -0.13100
F1292       F  0.16197103  0.97988222  0.52060596    -0.13700
F1293       F  0.15943508  0.07156469  0.52864498    -0.15900
F1294       F  0.19656069  0.98218497  0.52284213    -0.14500
F1295       F  0.21357983  0.04647439  0.57188166    -0.14500
F1296       F  0.25134050  0.01735618  0.48483072    -0.15900
C1297       C  0.48987736  0.17909833  0.28176591     0.14200
C1298       C  0.49854600  0.20252726  0.27971926     0.01100
C1299       C  0.48920591  0.22530870  0.27763062     0.16100
C1300       C  0.47137208  0.22473175  0.27842566     0.25500
C1301       C  0.46266433  0.20142503  0.28231447    -0.40800
C1302       C  0.47208015  0.17852968  0.28316216     0.32500
C1303       C  0.51733521  0.20305337  0.28104767     0.01200
F1304       F  0.49738618  0.24812553  0.27523784    -0.13100
F1305       F  0.46403757  0.15558291  0.28531584    -0.13700
C1306       C  0.52713055  0.19372501  0.25991687     0.16100
C1307       C  0.54488379  0.19219129  0.26213307     0.25500
C1308       C  0.55304230  0.19967531  0.28567706    -0.40800
C1309       C  0.54321520  0.20964930  0.30657364     0.32500
C1310       C  0.52548783  0.21139542  0.30421763     0.14200
F1311       F  0.51943985  0.18592168  0.23724409    -0.13100
F1312       F  0.55080482  0.21813390  0.32907168    -0.13700
F1313       F  0.55403522  0.18261571  0.24159551    -0.15900
F1314       F  0.51620928  0.22068870  0.32477246    -0.14500
F1315       F  0.49872309  0.15683174  0.28334975    -0.14500
F1316       F  0.46274480  0.24709158  0.27637216    -0.15900
C1317       C  0.39500825  0.11001094  0.40805382     0.14200
C1318       C  0.38792185  0.13254494  0.39764827     0.01100
C1319       C  0.37215452  0.14122029  0.40721173     0.16100
C1320       C  0.36340440  0.12731413  0.42663382     0.25500
C1321       C  0.37040438  0.10462889  0.43699744    -0.40800
C1322       C  0.38636804  0.09621629  0.42770641     0.32500
C1323       C  0.39652315  0.14649463  0.37595643     0.01200
F1324       F  0.36507834  0.16291997  0.39729183    -0.13100
F1325       F  0.39335165  0.07419543  0.43699667    -0.13700
C1326       C  0.39798525  0.13527926  0.35092058     0.16100
C1327       C  0.40515299  0.14893447  0.32983548     0.25500
C1328       C  0.41023872  0.17479247  0.33298980    -0.40800
C1329       C  0.41035464  0.18482805  0.35903975     0.32500
C1330       C  0.40318981  0.17103736  0.38009662     0.14200
F1331       F  0.39232557  0.11103121  0.34682720    -0.13100
F1332       F  0.41790852  0.20758939  0.36452377    -0.13700
F1333       F  0.40773248  0.13618534  0.30682175    -0.15900
F1334       F  0.40302013  0.18146154  0.40470827    -0.14500
F1335       F  0.41027879  0.10137024  0.39910038    -0.14500
F1336       F  0.34825288  0.13632899  0.43565831    -0.15900
C1337       C  0.42665885  0.17466601  0.19147586     0.14200
C1338       C  0.41022776  0.16876052  0.18211697     0.01100
C1339       C  0.39606967  0.17395845  0.19839722     0.16100
C1340       C  0.39838349  0.18404385  0.22385889     0.25500
C1341       C  0.41490088  0.18922569  0.23344595    -0.40800
C1342       C  0.42896188  0.18490896  0.21676075     0.32500
C1343       C  0.40814811  0.15598429  0.15599736     0.01200
F1344       F  0.38000552  0.16908542  0.18972139    -0.13100
F1345       F  0.44510308  0.18892789  0.22550737    -0.13700
C1346       C  0.39987296  0.13213693  0.15419290     0.16100
C1347       C  0.39947945  0.11882954  0.13015084     0.25500
C1348       C  0.40736237  0.12907369  0.10736178    -0.40800
C1349       C  0.41524910  0.15325376  0.10904297     0.32500
C1350       C  0.41556273  0.16658955  0.13306274     0.14200
F1351       F  0.39277633  0.12116158  0.17599481    -0.13100
F1352       F  0.42337947  0.16352666  0.08775778    -0.13700
F1353       F  0.39147279  0.09578304  0.12926383    -0.15900
F1354       F  0.42337477  0.18978196  0.13402731    -0.14500
F1355       F  0.44063898  0.16916678  0.17667249    -0.14500
F1356       F  0.38448318  0.18859444  0.23919738    -0.15900
C1357       C  0.53287911  0.96473260  0.81460737     0.14200
C1358       C  0.52222027  0.95261869  0.79616238     0.01100
C1359       C  0.52941665  0.93931361  0.77478420     0.16100
C1360       C  0.54709057  0.93798417  0.77192954     0.25500
C1361       C  0.55779467  0.94972869  0.79059444    -0.40800
C1362       C  0.55059897  0.96311915  0.81196161     0.32500
C1363       C  0.50354875  0.95362724  0.79901010     0.01200
F1364       F  0.51926781  0.92778717  0.75656974    -0.13100
F1365       F  0.56071800  0.97511233  0.82988206    -0.13700
C1366       C  0.49478524  0.97667152  0.79483482     0.16100
C1367       C  0.47697111  0.97693851  0.79463034     0.25500
C1368       C  0.46773515  0.95415523  0.79867970    -0.40800
C1369       C  0.47655552  0.93135140  0.80413922     0.32500
C1370       C  0.49435578  0.93109592  0.80418894     0.14200
F1371       F  0.50348823  0.99867380  0.78995096    -0.13100
F1372       F  0.46801026  0.90904831  0.80806659    -0.13700
F1373       F  0.46873081  0.99940712  0.79035171    -0.15900
F1374       F  0.50267825  0.90873633  0.80870122    -0.14500
F1375       F  0.52610365  0.97784764  0.83526448    -0.14500
F1376       F  0.55376730  0.92475074  0.75127128    -0.15900
C1377       C  0.41203291  0.97127090  0.70125399     0.14200
C1378       C  0.39726209  0.98621293  0.70166935     0.01100
C1379       C  0.39001533  0.99306788  0.72598290     0.16100
C1380       C  0.39741610  0.98516653  0.74977815     0.25500
C1381       C  0.41271839  0.97077621  0.74976015    -0.40800
C1382       C  0.41953288  0.96330257  0.72493850     0.32500
C1383       C  0.38874380  0.99343634  0.67676748     0.01200
F1384       F  0.37545145  0.00709127  0.72665316    -0.13100
F1385       F  0.43324772  0.94751545  0.72352144    -0.13700
C1386       C  0.37248937  0.98371399  0.67104051     0.16100
C1387       C  0.36398319  0.99128888  0.64806604     0.25500
C1388       C  0.37157546  0.00893230  0.63046524    -0.40800
C1389       C  0.38806704  0.01825401  0.63608277     0.32500
C1390       C  0.39659459  0.01043970  0.65900598     0.14200
F1391       F  0.36490549  0.96670403  0.68771022    -0.13100
F1392       F  0.39570549  0.03576649  0.62008562    -0.13700
F1393       F  0.34844872  0.98095087  0.64292510    -0.15900
F1394       F  0.41230059  0.02011885  0.66433072    -0.14500
F1395       F  0.41884900  0.96360555  0.67784501    -0.14500
F1396       F  0.38864743  0.99018707  0.77227052    -0.15900
C1397       C  0.43630528  0.99236873  0.88883094     0.14200
C1398       C  0.42025504  0.99941326  0.89879761     0.01100
C1399       C  0.40549893  0.99253961  0.88474143     0.16100
C1400       C  0.40676836  0.97953476  0.86066183     0.25500
C1401       C  0.42283843  0.97316379  0.85020331    -0.40800
C1402       C  0.43760397  0.97938120  0.86469997     0.32500
C1403       C  0.41885378  0.01488916  0.92322676     0.01200
F1404       F  0.38983734  0.99861459  0.89431524    -0.13100
F1405       F  0.45334548  0.97430743  0.85483960    -0.13700
C1406       C  0.41176436  0.03953711  0.92214676     0.16100
C1407       C  0.41011480  0.05417309  0.94516489     0.25500
C1408       C  0.41544891  0.04435255  0.96981800    -0.40800
C1409       C  0.42263516  0.01962147  0.97078095     0.32500
C1410       C  0.42439841  0.00511483  0.94765947     0.14200
F1411       F  0.40655167  0.04952402  0.89865281    -0.13100
F1412       F  0.42820505  0.00955253  0.99403144    -0.13700
F1413       F  0.40293848  0.07773919  0.94333835    -0.15900
F1414       F  0.43127392  0.98132118  0.94917554    -0.14500
F1415       F  0.45076029  0.99912214  0.90186893    -0.14500
F1416       F  0.39227736  0.97329034  0.84744886    -0.15900
C1417       C  0.21853872  0.52872391  0.53992906     0.14200
C1418       C  0.20611593  0.54624245  0.54829414     0.01100
C1419       C  0.21125907  0.56941303  0.55994684     0.16100
C1420       C  0.22859901  0.57530676  0.56250159     0.25500
C1421       C  0.24104194  0.55814767  0.55327950    -0.40800
C1422       C  0.23584282  0.53462610  0.54235893     0.32500
C1423       C  0.18782007  0.54071947  0.54403439     0.01200
F1424       F  0.19944698  0.58641481  0.56864437    -0.13100
F1425       F  0.24753003  0.51723905  0.53409488    -0.13700
C1426       C  0.18020865  0.51901311  0.55546476     0.16100
C1427       C  0.16288768  0.51393850  0.55151987     0.25500
C1428       C  0.15279405  0.53056180  0.53600144    -0.40800
C1429       C  0.16061866  0.55213804  0.52423847     0.32500
C1430       C  0.17794123  0.55708013  0.52820717     0.14200
F1431       F  0.18949277  0.50298193  0.57097042    -0.13100
F1432       F  0.15156675  0.56868420  0.50898365    -0.13700
F1433       F  0.15603161  0.49291153  0.56330315    -0.15900
F1434       F  0.18515333  0.57777951  0.51630109    -0.14500
F1435       F  0.21390162  0.50620952  0.52862637    -0.14500
F1436       F  0.23317201  0.59825763  0.57286004    -0.15900
C1437       C  0.47946380  0.43692275  0.31323837     0.14200
C1438       C  0.48851287  0.44794723  0.29207282     0.01100
C1439       C  0.47957393  0.46074642  0.27190185     0.16100
C1440       C  0.46178674  0.46287737  0.27316460     0.25500
C1441       C  0.45282744  0.45265244  0.29486557    -0.40800
C1442       C  0.46174719  0.43937422  0.31470184     0.32500
C1443       C  0.50733675  0.44799923  0.29250445     0.01200
F1444       F  0.48812516  0.47144044  0.25124376    -0.13100
F1445       F  0.45325928  0.42870376  0.33543976    -0.13700
C1446       C  0.51657724  0.42526495  0.28888642     0.16100
C1447       C  0.53433189  0.42513984  0.29197441     0.25500
C1448       C  0.54298831  0.44768294  0.29912378    -0.40800
C1449       C  0.53373876  0.47056609  0.30185688     0.32500
C1450       C  0.51605779  0.47069700  0.29857182     0.14200
F1451       F  0.50835168  0.40316739  0.28279947    -0.13100
F1452       F  0.54184222  0.49285403  0.30759596    -0.13700
F1453       F  0.54294863  0.40280384  0.28908905    -0.15900
F1454       F  0.50732900  0.49283213  0.30222545    -0.14500
F1455       F  0.48788411  0.42452685  0.33293829    -0.14500
F1456       F  0.45337750  0.47569280  0.25374423    -0.15900
C1457       C  0.43211855  0.30275070  0.30120174     0.14200
C1458       C  0.41861391  0.31491635  0.28777838     0.01100
C1459       C  0.40636348  0.29975064  0.27473071     0.16100
C1460       C  0.40760781  0.27302334  0.27518503     0.25500
C1461       C  0.42077241  0.26109727  0.28929860    -0.40800
C1462       C  0.43288890  0.27606662  0.30257838     0.32500
C1463       C  0.41681005  0.34322189  0.28879722     0.01200
F1464       F  0.39283705  0.31074500  0.26241989    -0.13100
F1465       F  0.44528277  0.26483535  0.31731845    -0.13700
C1466       C  0.41462131  0.35779144  0.26555130     0.16100
C1467       C  0.41265740  0.38442068  0.26689853     0.25500
C1468       C  0.41296174  0.39702693  0.29147615    -0.40800
C1469       C  0.41571661  0.38241595  0.31462178     0.32500
C1470       C  0.41724665  0.35586357  0.31332325     0.14200
F1471       F  0.41463569  0.34629814  0.24146610    -0.13100
F1472       F  0.41750675  0.39380084  0.33860883    -0.13700
F1473       F  0.41029523  0.39774945  0.24413868    -0.15900
F1474       F  0.41895761  0.34245233  0.33625003    -0.14500
F1475       F  0.44454429  0.31672678  0.31310498    -0.14500
F1476       F  0.39566901  0.25871147  0.26256163    -0.15900
C1477       C  0.37698092  0.48415494  0.37531902     0.14200
C1478       C  0.38367104  0.50804587  0.38226381     0.01100
C1479       C  0.39694989  0.51861207  0.36731415     0.16100
C1480       C  0.40393665  0.50499691  0.34615140     0.25500
C1481       C  0.39807763  0.48007497  0.33985906    -0.40800
C1482       C  0.38380553  0.47047475  0.35406746     0.32500
C1483       C  0.37628988  0.52232394  0.40458346     0.01200
F1484       F  0.40293385  0.54237980  0.37295318    -0.13100
F1485       F  0.37544549  0.44895311  0.34669855    -0.13700
C1486       C  0.38476580  0.52317628  0.42901170     0.16100
C1487       C  0.37718353  0.53521961  0.45074476     0.25500
C1488       C  0.36100718  0.54666638  0.44821830    -0.40800
C1489       C  0.35293042  0.54667765  0.42329453     0.32500
C1490       C  0.36045979  0.53439958  0.40173592     0.14200
F1491       F  0.40009266  0.51147479  0.43202309    -0.13100
F1492       F  0.33775735  0.55866847  0.41970947    -0.13700
F1493       F  0.38528430  0.53445751  0.47447744    -0.15900
F1494       F  0.35223959  0.53406937  0.37807667    -0.14500
F1495       F  0.36358543  0.47418987  0.38899001    -0.14500
F1496       F  0.41633969  0.51645746  0.33151689    -0.15900
C1497       C  0.49630693  0.70805199  0.77611193     0.14200
C1498       C  0.50424641  0.70082748  0.79986457     0.01100
C1499       C  0.49426794  0.69351294  0.82166185     0.16100
C1500       C  0.47651371  0.69308664  0.81969729     0.25500
C1501       C  0.46844703  0.70014049  0.79588244    -0.40800
C1502       C  0.47852323  0.70775541  0.77409861     0.32500
C1503       C  0.52297618  0.69982320  0.80161147     0.01200
F1504       F  0.50177853  0.68669310  0.84484855    -0.13100
F1505       F  0.47120247  0.71539157  0.75104044    -0.13700
C1506       C  0.53265287  0.72245148  0.80177163     0.16100
C1507       C  0.55044219  0.72127794  0.80322736     0.25500
C1508       C  0.55870441  0.69745276  0.80403086    -0.40800
C1509       C  0.54899913  0.67485204  0.80408327     0.32500
C1510       C  0.53122625  0.67604341  0.80305684     0.14200
F1511       F  0.52484499  0.74560274  0.80063690    -0.13100
F1512       F  0.55674947  0.65167243  0.80552579    -0.13700
F1513       F  0.55961588  0.74334192  0.80310199    -0.15900
F1514       F  0.52202822  0.65400098  0.80309883    -0.14500
F1515       F  0.50581904  0.71498383  0.75476315    -0.14500
F1516       F  0.46727330  0.68494817  0.84086377    -0.15900
C1517       C  0.41314338  0.79925167  0.81053646     0.14200
C1518       C  0.42891914  0.81197160  0.81117671     0.01100
C1519       C  0.44405031  0.79763158  0.81136850     0.16100
C1520       C  0.44342274  0.77090809  0.81001798     0.25500
C1521       C  0.42763134  0.75820719  0.80805067    -0.40800
C1522       C  0.41249668  0.77257722  0.80890804     0.32500
C1523       C  0.42948717  0.84016424  0.80923615     0.01200
F1524       F  0.45943356  0.80959301  0.81199807    -0.13100
F1525       F  0.39708043  0.76078558  0.80749702    -0.13700
C1526       C  0.42268098  0.85548937  0.82948685     0.16100
C1527       C  0.42208038  0.88213126  0.82651518     0.25500
C1528       C  0.42800750  0.89361188  0.80309551    -0.40800
C1529       C  0.43500582  0.87830537  0.78300173     0.32500
C1530       C  0.43583782  0.85178537  0.78611949     0.14200
F1531       F  0.41649891  0.84457625  0.85196948    -0.13100
F1532       F  0.44107529  0.88910967  0.76036716    -0.13700
F1533       F  0.41516510  0.89663819  0.84602070    -0.15900
F1534       F  0.44233400  0.83733660  0.76620508    -0.14500
F1535       F  0.39837983  0.81278610  0.81003853    -0.14500
F1536       F  0.45827932  0.75766683  0.80887599    -0.15900
C1537       C  0.40657085  0.65272854  0.71523096     0.14200
C1538       C  0.39016815  0.66245805  0.71088208     0.01100
C1539       C  0.38354507  0.68071039  0.72829951     0.16100
C1540       C  0.39340689  0.68988097  0.74925222     0.25500
C1541       C  0.41048675  0.68171574  0.75271190    -0.40800
C1542       C  0.41646752  0.66168560  0.73630722     0.32500
C1543       C  0.37969709  0.65288618  0.68872224     0.01200
F1544       F  0.36745338  0.68972449  0.72495939    -0.13100
F1545       F  0.43133373  0.64941596  0.74140123    -0.13700
C1546       C  0.36465958  0.63907801  0.69373775     0.16100
C1547       C  0.35480823  0.62981850  0.67275473     0.25500
C1548       C  0.35986187  0.63425669  0.64635748    -0.40800
C1549       C  0.37478987  0.64860425  0.64146254     0.32500
C1550       C  0.38465797  0.65768201  0.66248022     0.14200
F1551       F  0.35978179  0.63397137  0.71902437    -0.13100
F1552       F  0.37968593  0.65435998  0.61633982    -0.13700
F1553       F  0.34072512  0.61566939  0.67836517    -0.15900
F1554       F  0.39896942  0.67147899  0.65723991    -0.14500
F1555       F  0.41278370  0.63382163  0.69955945    -0.14500
F1556       F  0.38594500  0.70628268  0.76653273    -0.15900
C1557       C  0.32723688  0.59274466  0.05145460     0.14200
C1558       C  0.31867340  0.57159190  0.04064672     0.01100
C1559       C  0.32824331  0.55230335  0.02824227     0.16100
C1560       C  0.34607277  0.55383971  0.02716508     0.25500
C1561       C  0.35478743  0.57465504  0.03874240    -0.40800
C1562       C  0.34504757  0.59432596  0.05050989     0.32500
C1563       C  0.29978165  0.56967289  0.04236101     0.01200
F1564       F  0.32033679  0.53151008  0.01780848    -0.13100
F1565       F  0.35267650  0.61511453  0.06143299    -0.13700
C1566       C  0.28992159  0.56730155  0.01927095     0.16100
C1567       C  0.27213170  0.56559316  0.02082420     0.25500
C1568       C  0.26378759  0.56623940  0.04556374    -0.40800
C1569       C  0.27368834  0.56859971  0.06868410     0.32500
C1570       C  0.29149603  0.57028428  0.06708905     0.14200
F1571       F  0.29752678  0.56695907  0.99509781    -0.13100
F1572       F  0.26613584  0.56991618  0.09284781    -0.13700
F1573       F  0.26314869  0.56263158  0.99806752    -0.15900
F1574       F  0.30068523  0.57219739  0.08978389    -0.14500
F1575       F  0.31830831  0.61205330  0.06285823    -0.14500
F1576       F  0.35474200  0.53466085  0.01508828    -0.15900
C1577       C  0.41262121  0.51388134  0.21276937     0.14200
C1578       C  0.40538845  0.49999801  0.19177093     0.01100
C1579       C  0.39976382  0.47477524  0.19626649     0.16100
C1580       C  0.40136621  0.46363686  0.22139918     0.25500
C1581       C  0.40860654  0.47754921  0.24229163    -0.40800
C1582       C  0.41414431  0.50278256  0.23784358     0.32500
C1583       C  0.40399369  0.51185966  0.16519560     0.01200
F1584       F  0.39233795  0.46119972  0.17648278    -0.13100
F1585       F  0.42118794  0.51659449  0.25780145    -0.13700
C1586       C  0.41224999  0.50079062  0.14335605     0.16100
C1587       C  0.41202425  0.51298443  0.11866959     0.25500
C1588       C  0.40368394  0.53665163  0.11547697    -0.40800
C1589       C  0.39500318  0.54732597  0.13719873     0.32500
C1590       C  0.39510111  0.53497120  0.16180095     0.14200
F1591       F  0.42117636  0.47870911  0.14621658    -0.13100
F1592       F  0.38631697  0.56965122  0.13459734    -0.13700
F1593       F  0.42066808  0.50219827  0.09823716    -0.15900
F1594       F  0.38654014  0.54561472  0.18239615    -0.14500
F1595       F  0.41847910  0.53807401  0.20885371    -0.14500
F1596       F  0.39520084  0.43971362  0.22559516    -0.15900
C1597       C  0.41684556  0.67834328  0.89581403     0.14200
C1598       C  0.42092347  0.65229387  0.89913112     0.01100
C1599       C  0.42744337  0.63852361  0.87747721     0.16100
C1600       C  0.42926358  0.65031231  0.85275398     0.25500
C1601       C  0.42484120  0.67614811  0.84936949    -0.40800
C1602       C  0.41896369  0.69024305  0.87113075     0.32500
C1603       C  0.41809584  0.63927998  0.92492766     0.01200
F1604       F  0.43214973  0.61366927  0.88034439    -0.13100
F1605       F  0.41464929  0.71524220  0.86819083    -0.13700
C1606       C  0.40780458  0.61723408  0.92637283     0.16100
C1607       C  0.40545481  0.60449292  0.95050299     0.25500
C1608       C  0.41309779  0.61382980  0.97374077    -0.40800
C1609       C  0.42322008  0.63605797  0.97237817     0.32500
C1610       C  0.42578121  0.64858005  0.94814683     0.14200
F1611       F  0.39979787  0.60825391  0.90443344    -0.13100
F1612       F  0.43117048  0.64511116  0.99433195    -0.13700
F1613       F  0.39537938  0.58333641  0.95125395    -0.15900
F1614       F  0.43616397  0.66938753  0.94722087    -0.14500
F1615       F  0.41025779  0.69200530  0.91623020    -0.14500
F1616       F  0.43552351  0.63658885  0.83212044    -0.15900
C1617       C  0.68338283  0.59112807  0.08121010     0.14200
C1618       C  0.69203999  0.57054937  0.06948078     0.01100
C1619       C  0.68262360  0.55183976  0.05592063     0.16100
C1620       C  0.66487672  0.55351451  0.05419861     0.25500
C1621       C  0.65606134  0.57422588  0.06575823    -0.40800
C1622       C  0.66560235  0.59303806  0.07931028     0.32500
C1623       C  0.71088988  0.56852296  0.07096467     0.01200
F1624       F  0.69068408  0.53205700  0.04383724    -0.13100
F1625       F  0.65780376  0.61331105  0.09088985    -0.13700
C1626       C  0.71851271  0.54623566  0.08113461     0.16100
C1627       C  0.73621208  0.54320301  0.08034825     0.25500
C1628       C  0.74666261  0.56250659  0.06950907    -0.40800
C1629       C  0.73908356  0.58518003  0.06017254     0.32500
C1630       C  0.72135173  0.58816938  0.06090280     0.14200
F1631       F  0.70875988  0.52721525  0.09158347    -0.13100
F1632       F  0.74884910  0.60453194  0.05045558    -0.13700
F1633       F  0.74301366  0.52085206  0.08909671    -0.15900
F1634       F  0.71436873  0.60991621  0.05094548    -0.14500
F1635       F  0.69213461  0.60920556  0.09491172    -0.14500
F1636       F  0.65641859  0.53474584  0.04106602    -0.15900
C1637       C  0.60159747  0.49896654  0.15637137     0.14200
C1638       C  0.59287685  0.51025007  0.17759793     0.01100
C1639       C  0.58636543  0.53510498  0.17488900     0.16100
C1640       C  0.58894325  0.54881878  0.15141301     0.25500
C1641       C  0.59790869  0.53771110  0.13016262    -0.40800
C1642       C  0.60398765  0.51248303  0.13273321     0.32500
C1643       C  0.59120086  0.49640806  0.20293373     0.01200
F1644       F  0.57778359  0.54624174  0.19518070    -0.13100
F1645       F  0.61259624  0.50108804  0.11262971    -0.13700
C1646       C  0.60570208  0.49194546  0.21850690     0.16100
C1647       C  0.60424935  0.47911392  0.24270580     0.25500
C1648       C  0.58822421  0.47057022  0.25172276    -0.40800
C1649       C  0.57371973  0.47485624  0.23589138     0.32500
C1650       C  0.57521049  0.48778703  0.21171369     0.14200
F1651       F  0.62122070  0.50057823  0.21048499    -0.13100
F1652       F  0.55798641  0.46757301  0.24425034    -0.13700
F1653       F  0.61852184  0.47499930  0.25731077    -0.15900
F1654       F  0.56104092  0.49204437  0.19691184    -0.14500
F1655       F  0.60779359  0.47480758  0.15861875    -0.14500
F1656       F  0.58237862  0.57277292  0.14930728    -0.15900
C1657       C  0.58550673  0.66441788  0.90430068     0.14200
C1658       C  0.60123423  0.65911512  0.91636431     0.01100
C1659       C  0.61642271  0.66501095  0.90302370     0.16100
C1660       C  0.61595579  0.67545878  0.87754860     0.25500
C1661       C  0.60024278  0.68000699  0.86494696    -0.40800
C1662       C  0.58499732  0.67485598  0.87872331     0.32500
C1663       C  0.60197157  0.64546670  0.94190442     0.01200
F1664       F  0.63171570  0.65989330  0.91444836    -0.13100
F1665       F  0.56964845  0.67838742  0.86685145    -0.13700
C1666       C  0.60385309  0.61882724  0.94216262     0.16100
C1667       C  0.60530569  0.60560859  0.96612080     0.25500
C1668       C  0.60477863  0.61885163  0.99046217    -0.40800
C1669       C  0.60302722  0.64577326  0.98999510     0.32500
C1670       C  0.60162700  0.65890723  0.96586849     0.14200
F1671       F  0.60427989  0.60558658  0.91906143    -0.13100
F1672       F  0.60250310  0.65947499  0.01279084    -0.13700
F1673       F  0.60720858  0.57979957  0.96530774    -0.15900
F1674       F  0.59998404  0.68477021  0.96584801    -0.14500
F1675       F  0.57069564  0.65846336  0.91686090    -0.14500
F1676       F  0.63088034  0.68081108  0.86503244    -0.15900
C1677       C  0.48706571  0.55493244  0.05865824     0.14200
C1678       C  0.49578205  0.57846408  0.05699244     0.01100
C1679       C  0.48632035  0.60111499  0.05401698     0.16100
C1680       C  0.46852809  0.60023976  0.05234721     0.25500
C1681       C  0.45983967  0.57664059  0.05304381    -0.40800
C1682       C  0.46927679  0.55399091  0.05639687     0.32500
C1683       C  0.51472155  0.57926864  0.05730121     0.01200
F1684       F  0.49434042  0.62407189  0.05175699    -0.13100
F1685       F  0.46126754  0.53097924  0.05804307    -0.13700
C1686       C  0.52409070  0.56453879  0.03916684     0.16100
C1687       C  0.54190575  0.56502360  0.03932596     0.25500
C1688       C  0.55081334  0.58052720  0.05747540    -0.40800
C1689       C  0.54139354  0.59570998  0.07529952     0.32500
C1690       C  0.52354141  0.59494207  0.07530801     0.14200
F1691       F  0.51595899  0.54994837  0.02087452    -0.13100
F1692       F  0.54940439  0.61083506  0.09325336    -0.13700
F1693       F  0.55038932  0.55050240  0.02137456    -0.15900
F1694       F  0.51487707  0.60908044  0.09337945    -0.14500
F1695       F  0.49579894  0.53284299  0.06270130    -0.14500
F1696       F  0.45984418  0.62247496  0.04899803    -0.15900
loop_ 
_geom_bond_atom_site_label_1 
_geom_bond_atom_site_label_2 
_geom_bond_distance 
_geom_bond_site_symmetry_2 
_ccdc_geom_bond_type 
O1           Cu9   2.005       .  S
O1           C11   1.278       .  A
O2           Cu9   2.012       .  S
O2           C12   1.278       .  A
O3           Cu9   2.011       .  S
O3           C13   1.278       .  A
O4           Cu9   2.019       .  S
O4           C14   1.279       .  A
O5          Cu10   2.005       .  S
O5           C14   1.278       .  A
O6          Cu10   2.003       .  S
O6           C13   1.278       .  A
O7          Cu10   2.001       .  S
O7           C12   1.277       .  A
O8          Cu10   2.001       .  S
O8           C11   1.277       .  A
Cu9         Cu10   2.367       .  S
C11        C1641   1.477       .  S
C12        C1668   1.488   1_554  S
C13        C1688   1.485       .  S
C14        C1621   1.492       .  S
O15         Cu23   2.008   1_556  S
O15          C25   1.278       .  A
O16         Cu23   2.001       .  S
O16          C26   1.277       .  A
O17         Cu23   2.021       .  S
O17          C27   1.280       .  A
O18         Cu23   2.022       .  S
O18          C28   1.280       .  A
O19         Cu24   2.001       .  S
O19          C28   1.277       .  A
O20         Cu24   2.005       .  S
O20          C27   1.277       .  A
O21         Cu24   2.011       .  S
O21          C26   1.279       .  A
O22         Cu24   2.010       .  S
O22          C25   1.278   1_554  A
Cu23        Cu24   2.370       .  S
C25        C1608   1.477       .  S
C26        C1588   1.479       .  S
C27        C1561   1.493       .  S
C28        C1681   1.480       .  S
C29          C30   1.541       .  S
C29          C35   1.532       .  S
C29          C33   1.546       .  S
C29        C1541   1.533       .  S
C30          H37   1.086       .  S
C30          C31   1.364       .  D
C31          C32   1.535       .  S
C31        C1521   1.481       .  S
C32          C36   1.535       .  S
C32          C34   1.537       .  S
C32          H38   1.110       .  S
C33          H39   1.082       .  S
C33          C34   1.369       .  D
C34        C1501   1.483       .  S
C35          H40   1.087       .  S
C35          C36   1.362       .  D
C36        C1601   1.476       .  S
C41          C42   1.543       .  S
C41          C47   1.528       .  S
C41          C45   1.545       .  S
C41        C1481   1.534       .  S
C42          H49   1.079       .  S
C42          C43   1.369       .  D
C43          C44   1.540       .  S
C43        C1468   1.491       .  S
C44          C48   1.540       .  S
C44          C46   1.532       .  S
C44          H50   1.110       .  S
C45          H51   1.086       .  S
C45          C46   1.366       .  D
C46        C1441   1.476       .  S
C47          H52   1.087       .  S
C47          C48   1.361       .  D
C48        C1581   1.476       .  S
N53          N54   1.323       .  A
N53          C57   1.341       .  A
N53         Cu61   2.067       .  S
N54          C55   1.347       .  A
N54         Cu60   2.086       .  S
C55          C56   1.388       .  A
C55          H58   1.081       .  S
C56        C1548   1.482       .  S
C56          C57   1.382       .  A
C57          H59   1.082       .  S
Cu60         N63   2.085       .  S
Cu61         N71   2.066       .  S
Cu62         N64   2.056       .  S
Cu62         N70   2.056       .  S
N63          N64   1.322       .  A
N63          C67   1.348       .  A
N64          C65   1.340       .  A
C65          C66   1.380       .  A
C65          H68   1.083       .  S
C66        C1421   1.478       .  S
C66          C67   1.388       .  A
C67          H69   1.082       .  S
N70          N71   1.319       .  A
N70          C74   1.340       .  A
N71          C72   1.346       .  A
C72          C73   1.388       .  A
C72          H75   1.082       .  S
C73        C1488   1.480       .  S
C73          C74   1.384       .  A
C74          H76   1.081       .  S
C77          C78   1.544       .  S
C77          C83   1.533       .  S
C77          C81   1.540       .  S
C77        C1381   1.532       .  S
C78          H85   1.081       .  S
C78          C79   1.368       .  D
C79          C80   1.537       .  S
C79        C1401   1.484       .  S
C80          C84   1.534       .  S
C80          C82   1.535       .  S
C80          H86   1.111       .  S
C81          H87   1.086       .  S
C81          C82   1.365       .  D
C82        C1368   1.477       .  S
C83          H88   1.087       .  S
C83          C84   1.361       .  D
C84        C1528   1.475       .  S
C89          C90   1.544       .  S
C89          C95   1.542       .  S
C89          C93   1.535       .  S
C89        C1328   1.535       .  S
C90          H97   1.083       .  S
C90          C91   1.366       .  D
C91          C92   1.540       .  S
C91        C1341   1.487       .  S
C92          C96   1.535       .  S
C92          C94   1.536       .  S
C92          H98   1.110       .  S
C93          H99   1.086       .  S
C93          C94   1.366       .  D
C94        C1301   1.485       .  S
C95         H100   1.085       .  S
C95          C96   1.363       .  D
C96        C1461   1.473       .  S
N101        N102   1.322       .  A
N101        C105   1.343       .  A
N101       Cu109   2.064       .  S
N102        C103   1.345       .  A
N102       Cu108   2.076       .  S
C103        C104   1.385       .  A
C103        H106   1.082       .  S
C104       C1321   1.477       .  S
C104        C105   1.382       .  A
C105        H107   1.082       .  S
Cu108       N111   2.076       .  S
Cu109       N119   2.063       .  S
Cu110       N112   2.061       .  S
Cu110       N118   2.061       .  S
N111        N112   1.323       .  A
N111        C115   1.345       .  A
N112        C113   1.341       .  A
C113        C114   1.382       .  A
C113        H116   1.084       .  S
C114       C1281   1.478       .  S
C114        C115   1.386       .  A
C115        H117   1.084       .  S
N118        N119   1.320       .  A
N118        C122   1.342       .  A
N119        C120   1.343       .  A
C120        C121   1.386       .  A
C120        H123   1.082       .  S
C121       C1388   1.481       .  S
C121        C122   1.386       .  A
C122        H124   1.081       .  S
O125       Cu133   1.991       .  S
O125        C135   1.276       .  A
O126       Cu133   1.994       .  S
O126        C136   1.276       .  A
O127       Cu133   2.016   1_556  S
O127        C137   1.278       .  A
O128       Cu133   2.015       .  S
O128        C138   1.278       .  A
O129       Cu134   2.015       .  S
O129        C138   1.278       .  A
O130       Cu134   2.014       .  S
O130        C137   1.278   1_554  A
O131       Cu134   2.006       .  S
O131        C136   1.278       .  A
O132       Cu134   1.999       .  S
O132        C135   1.277       .  A
Cu133      Cu134   2.370       .  S
C135       C1268   1.474       .  S
C136       C1208   1.484       .  S
C137       C1248   1.478       .  S
C138       C1221   1.475       .  S
O139       Cu147   1.999       .  S
O139        C149   1.278       .  A
O140       Cu147   2.000       .  S
O140        C150   1.277       .  A
O141       Cu147   2.009       .  S
O141        C151   1.278       .  A
O142       Cu147   2.008       .  S
O142        C152   1.278   1_554  A
O143       Cu148   2.017   1_556  S
O143        C152   1.279       .  A
O144       Cu148   2.020       .  S
O144        C151   1.280       .  A
O145       Cu148   1.988       .  S
O145        C150   1.276       .  A
O146       Cu148   1.995       .  S
O146        C149   1.276       .  A
Cu147      Cu148   2.369       .  S
C149       C1181   1.480       .  S
C150       C1261   1.471       .  S
C151       C1348   1.486       .  S
C152       C1408   1.485       .  S
C153        C154   1.539       .  S
C153        C159   1.550       .  S
C153        C157   1.534       .  S
C153       C1161   1.534       .  S
C154        H161   1.086       .  S
C154        C155   1.363       .  D
C155        C156   1.535       .  S
C155       C1141   1.478       .  S
C156        C160   1.537       .  S
C156        C158   1.531       .  S
C156        H162   1.110       .  S
C157        H163   1.087       .  S
C157        C158   1.360       .  D
C158       C1361   1.474       .  S
C159        H164   1.081       .  S
C159        C160   1.372       .  D
C160       C1241   1.487       .  S
C165        C166   1.544       .  S
C165        C171   1.535       .  S
C165        C169   1.544       .  S
C165       C1121   1.540       .  S
C166        H173   1.081       .  S
C166        C167   1.368       .  D
C167        C168   1.538       .  S
C167       C1101   1.486       .  S
C168        C172   1.538       .  S
C168        C170   1.535       .  S
C168        H174   1.110       .  S
C169        H175   1.086       .  S
C169        C170   1.367       .  D
C170       C1308   1.482       .  S
C171        H176   1.086       .  S
C171        C172   1.365       .  D
C172       C1228   1.489       .  S
N177        N178   1.323       .  A
N177        C181   1.345       .  A
N177       Cu185   2.072       .  S
N178        C179   1.347       .  A
N178       Cu184   2.085       .  S
C179        C180   1.386       .  A
C179        H182   1.081       .  S
C180       C1128   1.479       .  S
C180        C181   1.382       .  A
C181        H183   1.083       .  S
Cu184       N187   2.085       .  S
Cu185       N195   2.071       .  S
Cu186       N188   2.068       .  S
Cu186       N194   2.067       .  S
N187        N188   1.322       .  A
N187        C191   1.346       .  A
N188        C189   1.343       .  A
C189        C190   1.386       .  A
C189        H192   1.083   1_545  S
C190       C1081   1.488       .  S
C190        C191   1.390       .  A
C191        H193   1.082       .  S
N194        N195   1.320       .  A
N194        C198   1.343   1_545  A
N195        C196   1.344       .  A
C196        C197   1.387   1_545  A
C196        H199   1.082       .  S
C197       C1168   1.482       .  S
C197        C198   1.386       .  A
C198        H200   1.081       .  S
C201        C202   1.539       .  S
C201        C207   1.541       .  S
C201        C205   1.533       .  S
C201       C1061   1.534       .  S
C202        H209   1.083       .  S
C202        C203   1.367       .  D
C203        C204   1.540       .  S
C203       C1661   1.482       .  S
C204        C208   1.540       .  S
C204        C206   1.530       .  S
C204        H210   1.109       .  S
C205        H211   1.087       .  S
C205        C206   1.361       .  D
C206       C1508   1.473       .  S
C207        H212   1.084       .  S
C207        C208   1.369       .  D
C208       C1148   1.491       .  S
C213        C214   1.543       .  S
C213        C219   1.531       .  S
C213        C217   1.543       .  S
C213       C1041   1.533       .  S
C214        H221   1.083       .  S
C214        C215   1.366       .  D
C215        C216   1.536       .  S
C215       C1648   1.482       .  S
C216        C220   1.533       .  S
C216        C218   1.536       .  S
C216        H222   1.111       .  S
C217        H223   1.085       .  S
C217        C218   1.368       .  D
C218       C1448   1.481       .  S
C219        H224   1.087       .  S
C219        C220   1.360       .  D
C220       C1108   1.472       .  S
N225        N226   1.323       .  A
N225        C229   1.343       .  A
N225       Cu233   2.074       .  S
N226        C227   1.345       .  A
N226       Cu232   2.073       .  S
C227        C228   1.385       .  A
C227        H230   1.082       .  S
C228       C1068   1.479       .  S
C228        C229   1.384       .  A
C229        H231   1.083       .  S
Cu232       N235   2.073       .  S
Cu233       N243   2.074       .  S
Cu234       N236   2.069       .  S
Cu234       N242   2.069       .  S
N235        N236   1.321       .  A
N235        C239   1.345       .  A
N236        C237   1.342       .  A
C237        C238   1.386       .  A
C237        H240   1.081       .  S
C238       C1021   1.484       .  S
C238        C239   1.387       .  A
C239        H241   1.083       .  S
N242        N243   1.321       .  A
N242        C246   1.343       .  A
N243        C244   1.346       .  A
C244        C245   1.385       .  A
C244        H247   1.083       .  S
C245       C1048   1.478       .  S
C245        C246   1.384       .  A
C246        H248   1.081       .  S
O249       Cu257   2.004       .  S
O249        C259   1.278       .  A
O250       Cu257   1.997       .  S
O250        C260   1.276       .  A
O251       Cu257   2.008       .  S
O251        C261   1.278       .  A
O252       Cu257   2.000       .  S
O252        C262   1.276       .  A
O253       Cu258   2.000       .  S
O253        C262   1.276       .  A
O254       Cu258   1.997       .  S
O254        C261   1.277       .  A
O255       Cu258   2.009       .  S
O255        C260   1.278       .  A
O256       Cu258   2.001       .  S
O256        C259   1.277       .  A
Cu257      Cu258   2.373       .  S
C259       C1428   1.486       .  S
C260       C1008   1.470       .  S
C261        C968   1.482       .  S
C262        C988   1.463       .  S
O263       Cu271   2.009       .  S
O263        C273   1.279       .  A
O264       Cu271   2.007       .  S
O264        C274   1.277       .  A
O265       Cu271   2.004       .  S
O265        C275   1.278       .  A
O266       Cu271   2.012       .  S
O266        C276   1.278       .  A
O267       Cu272   1.992       .  S
O267        C276   1.277       .  A
O268       Cu272   1.998       .  S
O268        C275   1.277       .  A
O269       Cu272   2.002       .  S
O269        C274   1.277       .  A
O270       Cu272   2.006       .  S
O270        C273   1.277       .  A
Cu271      Cu272   2.369       .  S
C273        C941   1.483       .  S
C274        C928   1.478       .  S
C275       C1001   1.481       .  S
C276       C1028   1.481       .  S
C277        C278   1.546       .  S
C277        C283   1.540       .  S
C277        C281   1.538       .  S
C277        C901   1.535       .  S
C278        H285   1.081       .  S
C278        C279   1.366       .  D
C279        C280   1.533       .  S
C279        C948   1.481       .  S
C280        C284   1.531       .  S
C280        C282   1.535       .  S
C280        H286   1.110       .  S
C281        H287   1.086       .  S
C281        C282   1.368       .  D
C282        C861   1.486       .  S
C283        H288   1.086       .  S
C283        C284   1.361       .  D
C284        C881   1.471       .  S
C289        C290   1.540       .  S
C289        C295   1.537       .  S
C289        C293   1.541       .  S
C289        C848   1.532       .  S
C290        H297   1.079       .  S
C290        C291   1.361       .  D
C291        C292   1.532       .  S
C291        C921   1.467       .  S
C292        C296   1.533       .  S
C292        C294   1.538       .  S
C292        H298   1.110       .  S
C293        H299   1.086       .  S
C293        C294   1.367       .  D
C294        C801   1.484       .  S
C295        H300   1.086       .  S
C295        C296   1.364       .  D
C296        C821   1.474       .  S
N301        N302   1.320       .  A
N301        C305   1.343       .  A
N301       Cu309   2.058       .  S
N302        C303   1.342       .  A
N302       Cu308   2.063       .  S
C303        C304   1.383       .  A
C303        H306   1.082       .  S
C304        C841   1.473       .  S
C304        C305   1.383       .  A
C305        H307   1.083       .  S
Cu308       N311   2.064       .  S
Cu309       N319   2.059       .  S
Cu310       N312   2.081       .  S
Cu310       N318   2.081       .  S
N311        N312   1.323       .  A
N311        C315   1.342       .  A
N312        C313   1.345       .  A
C313        C314   1.386       .  A
C313        H316   1.084       .  S
C314       C1628   1.480       .  S
C314        C315   1.383       .  A
C315        H317   1.084       .  S
N318        N319   1.322       .  A
N318        C322   1.346   1_554  A
N319        C320   1.341   1_554  A
C320        C321   1.383       .  A
C320        H323   1.083   1_556  S
C321        C908   1.481       .  S
C321        C322   1.388       .  A
C322        H324   1.082       .  S
C325        C326   1.527       .  S
C325        C331   1.542       .  S
C325        C329   1.540       .  S
C325        C761   1.526       .  S
C326        H333   1.086       .  S
C326        C327   1.363       .  D
C327        C328   1.540       .  S
C327        C888   1.484       .  S
C328        C332   1.542       .  S
C328        C330   1.537       .  S
C328        H334   1.109       .  S
C329        H335   1.085       .  S
C329        C330   1.359       .  D
C330        C741   1.470       .  S
C331        H336   1.084       .  S
C331        C332   1.370       .  D
C332        C781   1.491       .  S
C337        C338   1.539       .  S
C337        C343   1.546       .  S
C337        C341   1.537       .  S
C337        C708   1.536       .  S
C338        H345   1.087       .  S
C338        C339   1.365       .  D
C339        C340   1.534       .  S
C339        C828   1.479       .  S
C340        C344   1.533       .  S
C340        C342   1.533       .  S
C340        H346   1.111       .  S
C341        H347   1.087       .  S
C341        C342   1.362       .  D
C342        C681   1.476       .  S
C343        H348   1.079       .  S
C343        C344   1.366       .  D
C344        C728   1.470       .  S
N349        N350   1.322       .  A
N349        C353   1.341   1_545  A
N349       Cu357   2.062   1_556  S
N350        C351   1.345   1_545  A
N350       Cu356   2.070       .  S
C351        C352   1.383       .  A
C351        H354   1.082       .  S
C352        C768   1.471       .  S
C352        C353   1.380       .  A
C353        H355   1.082       .  S
Cu356       N359   2.070   1_556  S
Cu357       N367   2.061       .  S
Cu358       N360   2.066       .  S
Cu358       N366   2.065       .  S
N359        N360   1.321       .  A
N359        C363   1.343   1_554  A
N360        C361   1.342       .  A
C361        C362   1.385       .  A
C361        H364   1.082       .  S
C362       C1201   1.482       .  S
C362        C363   1.387   1_554  A
C363        H365   1.083       .  S
N366        N367   1.320       .  A
N366        C370   1.342       .  A
N367        C368   1.345       .  A
C368        C369   1.384       .  A
C368        H371   1.082       .  S
C369        C701   1.474       .  S
C369        C370   1.383       .  A
C370        H372   1.082       .  S
O373       Cu381   2.008   1_565  S
O373        C383   1.278       .  A
O374       Cu381   2.006       .  S
O374        C384   1.278       .  A
O375       Cu381   2.012       .  S
O375        C385   1.278       .  A
O376       Cu381   2.009       .  S
O376        C386   1.278       .  A
O377       Cu382   1.999       .  S
O377        C386   1.277       .  A
O378       Cu382   2.007       .  S
O378        C385   1.278       .  A
O379       Cu382   2.005       .  S
O379        C384   1.278       .  A
O380       Cu382   2.002       .  S
O380        C383   1.278   1_545  A
Cu381      Cu382   2.369       .  S
C383        C641   1.487       .  S
C384        C621   1.478       .  S
C385       C1288   1.484       .  S
C386        C661   1.476       .  S
O387       Cu395   2.009       .  S
O387        C397   1.278   1_545  A
O388       Cu395   2.006       .  S
O388        C398   1.277       .  A
O389       Cu395   2.012       .  S
O389        C399   1.279       .  A
O390       Cu395   2.004       .  S
O390        C400   1.277       .  A
O391       Cu396   2.010       .  S
O391        C400   1.279   1_565  A
O392       Cu396   2.009       .  S
O392        C399   1.278   1_565  A
O393       Cu396   2.003   1_545  S
O393        C398   1.278       .  A
O394       Cu396   2.009       .  S
O394        C397   1.277       .  A
Cu395      Cu396   2.370   1_545  S
C397        C788   1.479       .  S
C398        C721   1.479       .  S
C399       C1088   1.488       .  S
C400        C668   1.482       .  S
C401        C402   1.540       .  S
C401        C407   1.543       .  S
C401        C405   1.538       .  S
C401        C608   1.537       .  S
C402        H409   1.086       .  S
C402        C403   1.366       .  D
C403        C404   1.535       .  S
C403        C581   1.481       .  S
C404        C408   1.537       .  S
C404        C406   1.534       .  S
C404        H410   1.109       .  S
C405        H411   1.086       .  S
C405        C406   1.363       .  D
C406        C868   1.485       .  S
C407        H412   1.077       .  S
C407        C408   1.368       .  D
C408        C981   1.480       .  S
C413        C414   1.544       .  S
C413        C419   1.533       .  S
C413        C417   1.540       .  S
C413        C561   1.534       .  S
C414        H421   1.082       .  S
C414        C415   1.370       .  D
C415        C416   1.537       .  S
C415        C541   1.490       .  S
C416        C420   1.536       .  S
C416        C418   1.535       .  S
C416        H422   1.107       .  S
C417        H423   1.086       .  S
C417        C418   1.362       .  D
C418        C808   1.470       .  S
C419        H424   1.086       .  S
C419        C420   1.365       .  D
C420        C961   1.486       .  S
N425        N426   1.322       .  A
N425        C429   1.343       .  A
N425       Cu433   2.073       .  S
N426        C427   1.346       .  A
N426       Cu432   2.086       .  S
C427        C428   1.391       .  A
C427        H430   1.080       .  S
C428        C568   1.491       .  S
C428        C429   1.387       .  A
C429        H431   1.081       .  S
Cu432       N435   2.085       .  S
Cu433       N443   2.072       .  S
Cu434       N436   2.067       .  S
Cu434       N442   2.067   1_554  S
N435        N436   1.321       .  A
N435        C439   1.347       .  A
N436        C437   1.343       .  A
C437        C438   1.385       .  A
C437        H440   1.082       .  S
C438       C1568   1.486       .  S
C438        C439   1.389       .  A
C439        H441   1.083       .  S
N442        N443   1.321   1_556  A
N442        C446   1.341       .  A
N443        C444   1.347   1_554  A
C444        C445   1.387       .  A
C444        H447   1.082       .  S
C445        C601   1.480       .  S
C445        C446   1.384       .  A
C446        H448   1.081       .  S
C449        C450   1.533       .  S
C449        C455   1.537       .  S
C449        C453   1.545       .  S
C449        C521   1.536       .  S
C450        H457   1.086       .  S
C450        C451   1.367       .  D
C451        C452   1.539       .  S
C451        C648   1.491       .  S
C452        C456   1.534       .  S
C452        C454   1.540       .  S
C452        H458   1.108       .  S
C453        H459   1.079       .  S
C453        C454   1.369       .  D
C454        C748   1.487       .  S
C455        H460   1.087       .  S
C455        C456   1.362       .  D
C456        C588   1.475       .  S
C461        C462   1.550       .  S
C461        C467   1.535       .  S
C461        C465   1.540       .  S
C461        C508   1.536       .  S
C462        H469   1.079       .  S
C462        C463   1.370       .  D
C463        C464   1.534       .  S
C463        C628   1.477       .  S
C464        C468   1.535       .  S
C464        C466   1.530       .  S
C464        H470   1.111       .  S
C465        H471   1.087       .  S
C465        C466   1.360       .  D
C466        C688   1.469       .  S
C467        H472   1.086       .  S
C467        C468   1.363       .  D
C468        C548   1.482       .  S
N473        N474   1.323       .  A
N473        C477   1.343       .  A
N473       Cu481   2.079   1_556  S
N474        C475   1.347       .  A
N474       Cu480   2.075       .  S
C475        C476   1.384   1_545  A
C475        H478   1.081   1_545  S
C476        C528   1.478       .  S
C476        C477   1.383   1_565  A
C477        H479   1.083   1_545  S
Cu480       N483   2.074       .  S
Cu481       N491   2.079       .  S
Cu482       N484   2.060       .  S
Cu482       N490   2.060       .  S
N483        N484   1.322   1_556  A
N483        C487   1.345       .  A
N484        C485   1.341       .  A
C485        C486   1.381       .  A
C485        H488   1.083       .  S
C486       C1188   1.475       .  S
C486        C487   1.385   1_554  A
C487        H489   1.084       .  S
N490        N491   1.319       .  A
N490        C494   1.342       .  A
N491        C492   1.346       .  A
C492        C493   1.391       .  A
C492        H495   1.081       .  S
C493        C501   1.489       .  S
C493        C494   1.387       .  A
C494        H496   1.081       .  S
C497        C498   1.400       .  A
C497        C502   1.399       .  A
C497        F515   1.358       .  S
C498        C503   1.473       .  S
C498        C499   1.401       .  A
C499        C500   1.398       .  A
C499        F504   1.358       .  S
C500        C501   1.413       .  A
C500        F516   1.357       .  S
C501        C502   1.412       .  A
C502        F505   1.356       .  S
C503        C506   1.401       .  A
C503        C510   1.396       .  A
C506        C507   1.401       .  A
C506        F511   1.358       .  S
C507        C508   1.417       .  A
C507        F513   1.352       .  S
C508        C509   1.420       .  A
C509        C510   1.395       .  A
C509        F512   1.359       .  S
C510        F514   1.358       .  S
C517        C518   1.401       .  A
C517        C522   1.399       .  A
C517        F535   1.358       .  S
C518        C523   1.478       .  S
C518        C519   1.399       .  A
C519        C520   1.398       .  A
C519        F524   1.358       .  S
C520        C521   1.418       .  A
C520        F536   1.358       .  S
C521        C522   1.418       .  A
C522        F525   1.353       .  S
C523        C526   1.404       .  A
C523        C530   1.405       .  A
C526        C527   1.398       .  A
C526        F531   1.358       .  S
C527        C528   1.406       .  A
C527        F533   1.358       .  S
C528        C529   1.407       .  A
C529        C530   1.400       .  A
C529        F532   1.358   1_565  S
C530        F534   1.358       .  S
C537        C538   1.400       .  A
C537        C542   1.396       .  A
C537        F555   1.358       .  S
C538        C543   1.470       .  S
C538        C539   1.401       .  A
C539        C540   1.397       .  A
C539        F544   1.358       .  S
C540        C541   1.411       .  A
C540        F556   1.358       .  S
C541        C542   1.412       .  A
C542        F545   1.355       .  S
C543        C546   1.401       .  A
C543        C550   1.402       .  A
C546        C547   1.393       .  A
C546        F551   1.358       .  S
C547        C548   1.408       .  A
C547        F553   1.358       .  S
C548        C549   1.408       .  A
C549        C550   1.401       .  A
C549        F552   1.357       .  S
C550        F554   1.357       .  S
C557        C558   1.399       .  A
C557        C562   1.398       .  A
C557        F575   1.358       .  S
C558        C563   1.475       .  S
C558        C559   1.399       .  A
C559        C560   1.398       .  A
C559        F564   1.358       .  S
C560        C561   1.418       .  A
C560        F576   1.358       .  S
C561        C562   1.418       .  A
C562        F565   1.355       .  S
C563        C566   1.400       .  A
C563        C570   1.402       .  A
C566        C567   1.399       .  A
C566        F571   1.358       .  S
C567        C568   1.414       .  A
C567        F573   1.356       .  S
C568        C569   1.412       .  A
C569        C570   1.399       .  A
C569        F572   1.357       .  S
C570        F574   1.358       .  S
C577        C578   1.405       .  A
C577        C582   1.397       .  A
C577        F595   1.358       .  S
C578        C583   1.480       .  S
C578        C579   1.405       .  A
C579        C580   1.400       .  A
C579        F584   1.358       .  S
C580        C581   1.406       .  A
C580        F596   1.358       .  S
C581        C582   1.406       .  A
C582        F585   1.357       .  S
C583        C586   1.405       .  A
C583        C590   1.407       .  A
C586        C587   1.394       .  A
C586        F591   1.358       .  S
C587        C588   1.404       .  A
C587        F593   1.358       .  S
C588        C589   1.404       .  A
C589        C590   1.403       .  A
C589        F592   1.358       .  S
C590        F594   1.357       .  S
C597        C598   1.402       .  A
C597        C602   1.396       .  A
C597        F615   1.358       .  S
C598        C603   1.477       .  S
C598        C599   1.405       .  A
C599        C600   1.400       .  A
C599        F604   1.358       .  S
C600        C601   1.408       .  A
C600        F616   1.357       .  S
C601        C602   1.408       .  A
C602        F605   1.358       .  S
C603        C606   1.401       .  A
C603        C610   1.398       .  A
C606        C607   1.400       .  A
C606        F611   1.358       .  S
C607        C608   1.420       .  A
C607        F613   1.351       .  S
C608        C609   1.418       .  A
C609        C610   1.395       .  A
C609        F612   1.359       .  S
C610        F614   1.358       .  S
C617        C618   1.403       .  A
C617        C622   1.398       .  A
C617        F635   1.358       .  S
C618        C623   1.475       .  S
C618        C619   1.403       .  A
C619        C620   1.398       .  A
C619        F624   1.358       .  S
C620        C621   1.409       .  A
C620        F636   1.358       .  S
C621        C622   1.408       .  A
C622        F625   1.358       .  S
C623        C626   1.403       .  A
C623        C630   1.405       .  A
C626        C627   1.397       .  A
C626        F631   1.358       .  S
C627        C628   1.405       .  A
C627        F633   1.354       .  S
C628        C629   1.404       .  A
C629        C630   1.399       .  A
C629        F632   1.357       .  S
C630        F634   1.358       .  S
C637        C638   1.400       .  A
C637        C642   1.396       .  A
C637        F655   1.358       .  S
C638        C643   1.473       .  S
C638        C639   1.401       .  A
C639        C640   1.400       .  A
C639        F644   1.358       .  S
C640        C641   1.414       .  A
C640        F656   1.358       .  S
C641        C642   1.412       .  A
C642        F645   1.358   1_565  S
C643        C646   1.402       .  A
C643        C650   1.400       .  A
C646        C647   1.401       .  A
C646        F651   1.358       .  S
C647        C648   1.412       .  A
C647        F653   1.357       .  S
C648        C649   1.411       .  A
C649        C650   1.396       .  A
C649        F652   1.357       .  S
C650        F654   1.358       .  S
C657        C658   1.405       .  A
C657        C662   1.397       .  A
C657        F675   1.358       .  S
C658        C663   1.480       .  S
C658        C659   1.406       .  A
C659        C660   1.399       .  A
C659        F664   1.358   1_545  S
C660        C661   1.407       .  A
C660        F676   1.358   1_545  S
C661        C662   1.407       .  A
C662        F665   1.358       .  S
C663        C666   1.404   1_455  A
C663        C670   1.404   1_445  A
C666        C667   1.398       .  A
C666        F671   1.358       .  S
C667        C668   1.410       .  A
C667        F673   1.358       .  S
C668        C669   1.409   1_545  A
C669        C670   1.398       .  A
C669        F672   1.358       .  S
C670        F674   1.358   1_655  S
C677        C678   1.407       .  A
C677        C682   1.400       .  A
C677        F695   1.358       .  S
C678        C683   1.479   1_655  S
C678        C679   1.405       .  A
C679        C680   1.393       .  A
C679        F684   1.358       .  S
C680        C681   1.405       .  A
C680        F696   1.358       .  S
C681        C682   1.405       .  A
C682        F685   1.357       .  S
C683        C686   1.407       .  A
C683        C690   1.408       .  A
C686        C687   1.396       .  A
C686        F691   1.358       .  S
C687        C688   1.402       .  A
C687        F693   1.358       .  S
C688        C689   1.401       .  A
C689        C690   1.397       .  A
C689        F692   1.358       .  S
C690        F694   1.358       .  S
C697        C698   1.406       .  A
C697        C702   1.399       .  A
C697        F715   1.358       .  S
C698        C703   1.480       .  S
C698        C699   1.406       .  A
C699        C700   1.395       .  A
C699        F704   1.358       .  S
C700        C701   1.404       .  A
C700        F716   1.358       .  S
C701        C702   1.406       .  A
C702        F705   1.358       .  S
C703        C706   1.399       .  A
C703        C710   1.403       .  A
C706        C707   1.394       .  A
C706        F711   1.358       .  S
C707        C708   1.418       .  A
C707        F713   1.359       .  S
C708        C709   1.417       .  A
C709        C710   1.400       .  A
C709        F712   1.351       .  S
C710        F714   1.358       .  S
C717        C718   1.402       .  A
C717        C722   1.395       .  A
C717        F735   1.358       .  S
C718        C723   1.474       .  S
C718        C719   1.403       .  A
C719        C720   1.400       .  A
C719        F724   1.358       .  S
C720        C721   1.410       .  A
C720        F736   1.358       .  S
C721        C722   1.408       .  A
C722        F725   1.358       .  S
C723        C726   1.405       .  A
C723        C730   1.404       .  A
C726        C727   1.399       .  A
C726        F731   1.358       .  S
C727        C728   1.402       .  A
C727        F733   1.357       .  S
C728        C729   1.403       .  A
C729        C730   1.396       .  A
C729        F732   1.358       .  S
C730        F734   1.358       .  S
C737        C738   1.408       .  A
C737        C742   1.398       .  A
C737        F755   1.358       .  S
C738        C743   1.482   1_655  S
C738        C739   1.408       .  A
C739        C740   1.397       .  A
C739        F744   1.358       .  S
C740        C741   1.401       .  A
C740        F756   1.357       .  S
C741        C742   1.402       .  A
C742        F745   1.358       .  S
C743        C746   1.405       .  A
C743        C750   1.406       .  A
C746        C747   1.397       .  A
C746        F751   1.358       .  S
C747        C748   1.409       .  A
C747        F753   1.358       .  S
C748        C749   1.408       .  A
C749        C750   1.398       .  A
C749        F752   1.357       .  S
C750        F754   1.358       .  S
C757        C758   1.399       .  A
C757        C762   1.394       .  A
C757        F775   1.358       .  S
C758        C763   1.471       .  S
C758        C759   1.400       .  A
C759        C760   1.397       .  A
C759        F764   1.358       .  S
C760        C761   1.415       .  A
C760        F776   1.357       .  S
C761        C762   1.416       .  A
C762        F765   1.357       .  S
C763        C766   1.403       .  A
C763        C770   1.404       .  A
C766        C767   1.394       .  A
C766        F771   1.358       .  S
C767        C768   1.406       .  A
C767        F773   1.358       .  S
C768        C769   1.406       .  A
C769        C770   1.398       .  A
C769        F772   1.358       .  S
C770        F774   1.358       .  S
C777        C778   1.402       .  A
C777        C782   1.398       .  A
C777        F795   1.358       .  S
C778        C783   1.478       .  S
C778        C779   1.403       .  A
C779        C780   1.399       .  A
C779        F784   1.358       .  S
C780        C781   1.411       .  A
C780        F796   1.358       .  S
C781        C782   1.410       .  A
C782        F785   1.355       .  S
C783        C786   1.404       .  A
C783        C790   1.404       .  A
C786        C787   1.401       .  A
C786        F791   1.358       .  S
C787        C788   1.409       .  A
C787        F793   1.358       .  S
C788        C789   1.407       .  A
C789        C790   1.397       .  A
C789        F792   1.358       .  S
C790        F794   1.358       .  S
C797        C798   1.405       .  A
C797        C802   1.396       .  A
C797        F815   1.358       .  S
C798        C803   1.481   1_655  S
C798        C799   1.406       .  A
C799        C800   1.400       .  A
C799        F804   1.358       .  S
C800        C801   1.408       .  A
C800        F816   1.357       .  S
C801        C802   1.408       .  A
C802        F805   1.358       .  S
C803        C806   1.407       .  A
C803        C810   1.407       .  A
C806        C807   1.398       .  A
C806        F811   1.358       .  S
C807        C808   1.402       .  A
C807        F813   1.358       .  S
C808        C809   1.402       .  A
C809        C810   1.397       .  A
C809        F812   1.358       .  S
C810        F814   1.358       .  S
C817        C818   1.407       .  A
C817        C822   1.397       .  A
C817        F835   1.358       .  S
C818        C823   1.481       .  S
C818        C819   1.406       .  A
C819        C820   1.400       .  A
C819        F824   1.358       .  S
C820        C821   1.404       .  A
C820        F836   1.358       .  S
C821        C822   1.403       .  A
C822        F825   1.358       .  S
C823        C826   1.407       .  A
C823        C830   1.405       .  A
C826        C827   1.402       .  A
C826        F831   1.358       .  S
C827        C828   1.405       .  A
C827        F833   1.356       .  S
C828        C829   1.406       .  A
C829        C830   1.394       .  A
C829        F832   1.358       .  S
C830        F834   1.358       .  S
C837        C838   1.402       .  A
C837        C842   1.397       .  A
C837        F855   1.358       .  S
C838        C843   1.469       .  S
C838        C839   1.401       .  A
C839        C840   1.395       .  A
C839        F844   1.358       .  S
C840        C841   1.407       .  A
C840        F856   1.358       .  S
C841        C842   1.407       .  A
C842        F845   1.358       .  S
C843        C846   1.398       .  A
C843        C850   1.397       .  A
C846        C847   1.396       .  A
C846        F851   1.359       .  S
C847        C848   1.419       .  A
C847        F853   1.353       .  S
C848        C849   1.416       .  A
C849        C850   1.395       .  A
C849        F852   1.358       .  S
C850        F854   1.358       .  S
C857        C858   1.401       .  A
C857        C862   1.396       .  A
C857        F875   1.358   1_655  S
C858        C863   1.471   1_655  S
C858        C859   1.401       .  A
C859        C860   1.399       .  A
C859        F864   1.358       .  S
C860        C861   1.411       .  A
C860        F876   1.357       .  S
C861        C862   1.408       .  A
C862        F865   1.357       .  S
C863        C866   1.402       .  A
C863        C870   1.400       .  A
C866        C867   1.400       .  A
C866        F871   1.358       .  S
C867        C868   1.409       .  A
C867        F873   1.357       .  S
C868        C869   1.410       .  A
C869        C870   1.395       .  A
C869        F872   1.358       .  S
C870        F874   1.358       .  S
C877        C878   1.405       .  A
C877        C882   1.401       .  A
C877        F895   1.357       .  S
C878        C883   1.472       .  S
C878        C879   1.403       .  A
C879        C880   1.393       .  A
C879        F884   1.358       .  S
C880        C881   1.404       .  A
C880        F896   1.358       .  S
C881        C882   1.403       .  A
C882        F885   1.358       .  S
C883        C886   1.401       .  A
C883        C890   1.403       .  A
C886        C887   1.397       .  A
C886        F891   1.358       .  S
C887        C888   1.410       .  A
C887        F893   1.358       .  S
C888        C889   1.407       .  A
C889        C890   1.397       .  A
C889        F892   1.355       .  S
C890        F894   1.358       .  S
C897        C898   1.402       .  A
C897        C902   1.397       .  A
C897        F915   1.358       .  S
C898        C903   1.480       .  S
C898        C899   1.402       .  A
C899        C900   1.399       .  A
C899        F904   1.358       .  S
C900        C901   1.416       .  A
C900        F916   1.354       .  S
C901        C902   1.416       .  A
C902        F905   1.358       .  S
C903        C906   1.405       .  A
C903        C910   1.404       .  A
C906        C907   1.398       .  A
C906        F911   1.358       .  S
C907        C908   1.407       .  A
C907        F913   1.357       .  S
C908        C909   1.410       .  A
C909        C910   1.397       .  A
C909        F912   1.357       .  S
C910        F914   1.358       .  S
C917        C918   1.406       .  A
C917        C922   1.400       .  A
C917        F935   1.358       .  S
C918        C923   1.474       .  S
C918        C919   1.404       .  A
C919        C920   1.393       .  A
C919        F924   1.358       .  S
C920        C921   1.402       .  A
C920        F936   1.358       .  S
C921        C922   1.402       .  A
C922        F925   1.358       .  S
C923        C926   1.402       .  A
C923        C930   1.404       .  A
C926        C927   1.398       .  A
C926        F931   1.358       .  S
C927        C928   1.409       .  A
C927        F933   1.358       .  S
C928        C929   1.408       .  A
C929        C930   1.396       .  A
C929        F932   1.358       .  S
C930        F934   1.358       .  S
C937        C938   1.403       .  A
C937        C942   1.397       .  A
C937        F955   1.358       .  S
C938        C943   1.477       .  S
C938        C939   1.403       .  A
C939        C940   1.401       .  A
C939        F944   1.358       .  S
C940        C941   1.411       .  A
C940        F956   1.358       .  S
C941        C942   1.409       .  A
C942        F945   1.358       .  S
C943        C946   1.404       .  A
C943        C950   1.404       .  A
C946        C947   1.397       .  A
C946        F951   1.358       .  S
C947        C948   1.406       .  A
C947        F953   1.358       .  S
C948        C949   1.407       .  A
C949        C950   1.399       .  A
C949        F952   1.358       .  S
C950        F954   1.358       .  S
C957        C958   1.403       .  A
C957        C962   1.395       .  A
C957        F975   1.358       .  S
C958        C963   1.475       .  S
C958        C959   1.403       .  A
C959        C960   1.398       .  A
C959        F964   1.358       .  S
C960        C961   1.410       .  A
C960        F976   1.358       .  S
C961        C962   1.409       .  A
C962        F965   1.356       .  S
C963        C966   1.403       .  A
C963        C970   1.402       .  A
C966        C967   1.398       .  A
C966        F971   1.358       .  S
C967        C968   1.411       .  A
C967        F973   1.358       .  S
C968        C969   1.411       .  A
C969        C970   1.395       .  A
C969        F972   1.358       .  S
C970        F974   1.358       .  S
C977        C978   1.405       .  A
C977        C982   1.393       .  A
C977        F995   1.358       .  S
C978        C983   1.481       .  S
C978        C979   1.408       .  A
C979        C980   1.400       .  A
C979        F984   1.358       .  S
C980        C981   1.405       .  A
C980        F996   1.358       .  S
C981        C982   1.407       .  A
C982        F985   1.358       .  S
C983        C986   1.409       .  A
C983        C990   1.407       .  A
C986        C987   1.396       .  A
C986        F991   1.358       .  S
C987        C988   1.401       .  A
C987        F993   1.358       .  S
C988        C989   1.402       .  A
C989        C990   1.397       .  A
C989        F992   1.358       .  S
C990        F994   1.358       .  S
C997        C998   1.403       .  A
C997       C1002   1.396       .  A
C997       F1015   1.358       .  S
C998       C1003   1.476   1_655  S
C998        C999   1.404       .  A
C999       C1000   1.396       .  A
C999       F1004   1.358       .  S
C1000      C1001   1.410       .  A
C1000      F1016   1.358       .  S
C1001      C1002   1.411       .  A
C1002      F1005   1.358       .  S
C1003      C1006   1.405       .  A
C1003      C1010   1.406       .  A
C1006      C1007   1.395       .  A
C1006      F1011   1.358       .  S
C1007      C1008   1.406       .  A
C1007      F1013   1.358       .  S
C1008      C1009   1.405       .  A
C1009      C1010   1.398       .  A
C1009      F1012   1.358       .  S
C1010      F1014   1.358       .  S
C1017      C1018   1.402       .  A
C1017      C1022   1.401       .  A
C1017      F1035   1.358       .  S
C1018      C1023   1.472       .  S
C1018      C1019   1.401       .  A
C1019      C1020   1.395       .  A
C1019      F1024   1.358       .  S
C1020      C1021   1.410       .  A
C1020      F1036   1.357       .  S
C1021      C1022   1.411       .  A
C1022      F1025   1.357       .  S
C1023      C1026   1.403       .  A
C1023      C1030   1.400       .  A
C1026      C1027   1.402       .  A
C1026      F1031   1.358       .  S
C1027      C1028   1.412       .  A
C1027      F1033   1.358       .  S
C1028      C1029   1.410       .  A
C1029      C1030   1.392       .  A
C1029      F1032   1.358       .  S
C1030      F1034   1.358       .  S
C1037      C1038   1.399       .  A
C1037      C1042   1.396       .  A
C1037      F1055   1.358       .  S
C1038      C1043   1.473       .  S
C1038      C1039   1.399       .  A
C1039      C1040   1.399       .  A
C1039      F1044   1.358       .  S
C1040      C1041   1.417       .  A
C1040      F1056   1.358       .  S
C1041      C1042   1.418       .  A
C1042      F1045   1.356       .  S
C1043      C1046   1.403       .  A
C1043      C1050   1.402       .  A
C1046      C1047   1.400       .  A
C1046      F1051   1.358       .  S
C1047      C1048   1.407       .  A
C1047      F1053   1.357       .  S
C1048      C1049   1.408       .  A
C1049      C1050   1.397       .  A
C1049      F1052   1.358       .  S
C1050      F1054   1.358       .  S
C1057      C1058   1.399       .  A
C1057      C1062   1.399       .  A
C1057      F1075   1.358       .  S
C1058      C1063   1.476       .  S
C1058      C1059   1.399       .  A
C1059      C1060   1.398       .  A
C1059      F1064   1.358       .  S
C1060      C1061   1.418       .  A
C1060      F1076   1.357       .  S
C1061      C1062   1.418       .  A
C1062      F1065   1.356       .  S
C1063      C1066   1.403       .  A
C1063      C1070   1.403       .  A
C1066      C1067   1.398       .  A
C1066      F1071   1.358       .  S
C1067      C1068   1.408       .  A
C1067      F1073   1.358       .  S
C1068      C1069   1.408       .  A
C1069      C1070   1.399       .  A
C1069      F1072   1.357       .  S
C1070      F1074   1.358       .  S
C1077      C1078   1.402       .  A
C1077      C1082   1.400       .  A
C1077      F1095   1.358       .  S
C1078      C1083   1.476       .  S
C1078      C1079   1.401   1_545  A
C1079      C1080   1.400       .  A
C1079      F1084   1.358       .  S
C1080      C1081   1.412   1_565  A
C1080      F1096   1.357       .  S
C1081      C1082   1.411       .  A
C1082      F1085   1.357       .  S
C1083      C1086   1.401       .  A
C1083      C1090   1.402   1_545  A
C1086      C1087   1.398       .  A
C1086      F1091   1.358       .  S
C1087      C1088   1.411       .  A
C1087      F1093   1.358       .  S
C1088      C1089   1.413   1_545  A
C1089      C1090   1.401       .  A
C1089      F1092   1.358       .  S
C1090      F1094   1.358       .  S
C1097      C1098   1.404       .  A
C1097      C1102   1.400       .  A
C1097      F1115   1.358       .  S
C1098      C1103   1.478       .  S
C1098      C1099   1.403       .  A
C1099      C1100   1.396       .  A
C1099      F1104   1.358       .  S
C1100      C1101   1.408       .  A
C1100      F1116   1.356       .  S
C1101      C1102   1.408       .  A
C1102      F1105   1.358       .  S
C1103      C1106   1.406       .  A
C1103      C1110   1.406       .  A
C1106      C1107   1.401       .  A
C1106      F1111   1.357       .  S
C1107      C1108   1.403       .  A
C1107      F1113   1.358       .  S
C1108      C1109   1.402       .  A
C1109      C1110   1.396       .  A
C1109      F1112   1.358       .  S
C1110      F1114   1.358       .  S
C1117      C1118   1.400       .  A
C1117      C1122   1.398       .  A
C1117      F1135   1.358       .  S
C1118      C1123   1.480       .  S
C1118      C1119   1.400       .  A
C1119      C1120   1.402       .  A
C1119      F1124   1.358       .  S
C1120      C1121   1.420       .  A
C1120      F1136   1.353       .  S
C1121      C1122   1.417       .  A
C1122      F1125   1.358       .  S
C1123      C1126   1.404       .  A
C1123      C1130   1.405       .  A
C1126      C1127   1.399       .  A
C1126      F1131   1.358       .  S
C1127      C1128   1.405       .  A
C1127      F1133   1.358       .  S
C1128      C1129   1.408       .  A
C1129      C1130   1.402       .  A
C1129      F1132   1.358       .  S
C1130      F1134   1.358       .  S
C1137      C1138   1.403       .  A
C1137      C1142   1.398       .  A
C1137      F1155   1.358       .  S
C1138      C1143   1.473       .  S
C1138      C1139   1.404       .  A
C1139      C1140   1.400       .  A
C1139      F1144   1.358       .  S
C1140      C1141   1.405       .  A
C1140      F1156   1.358       .  S
C1141      C1142   1.406       .  A
C1142      F1145   1.358       .  S
C1143      C1146   1.402       .  A
C1143      C1150   1.399       .  A
C1146      C1147   1.403       .  A
C1146      F1151   1.358       .  S
C1147      C1148   1.412       .  A
C1147      F1153   1.357       .  S
C1148      C1149   1.412       .  A
C1149      C1150   1.394       .  A
C1149      F1152   1.358       .  S
C1150      F1154   1.358       .  S
C1157      C1158   1.403       .  A
C1157      C1162   1.400       .  A
C1157      F1175   1.358   1_565  S
C1158      C1163   1.478       .  S
C1158      C1159   1.398       .  A
C1159      C1160   1.395       .  A
C1159      F1164   1.358       .  S
C1160      C1161   1.418       .  A
C1160      F1176   1.358       .  S
C1161      C1162   1.416       .  A
C1162      F1165   1.354   1_565  S
C1163      C1166   1.404       .  A
C1163      C1170   1.403       .  A
C1166      C1167   1.399       .  A
C1166      F1171   1.358       .  S
C1167      C1168   1.409       .  A
C1167      F1173   1.358       .  S
C1168      C1169   1.409   1_565  A
C1169      C1170   1.397   1_545  A
C1169      F1172   1.357       .  S
C1170      F1174   1.358   1_565  S
C1177      C1178   1.401       .  A
C1177      C1182   1.393       .  A
C1177      F1195   1.358       .  S
C1178      C1183   1.472       .  S
C1178      C1179   1.402       .  A
C1179      C1180   1.398       .  A
C1179      F1184   1.358       .  S
C1180      C1181   1.412       .  A
C1180      F1196   1.358       .  S
C1181      C1182   1.410       .  A
C1182      F1185   1.358       .  S
C1183      C1186   1.402       .  A
C1183      C1190   1.404   1_554  A
C1186      C1187   1.394       .  A
C1186      F1191   1.358       .  S
C1187      C1188   1.407       .  A
C1187      F1193   1.358       .  S
C1188      C1189   1.407   1_554  A
C1189      C1190   1.399       .  A
C1189      F1192   1.358       .  S
C1190      F1194   1.358       .  S
C1197      C1198   1.404       .  A
C1197      C1202   1.396       .  A
C1197      F1215   1.358       .  S
C1198      C1203   1.478       .  S
C1198      C1199   1.404       .  A
C1199      C1200   1.398       .  A
C1199      F1204   1.358       .  S
C1200      C1201   1.410       .  A
C1200      F1216   1.357       .  S
C1201      C1202   1.409       .  A
C1202      F1205   1.357       .  S
C1203      C1206   1.404       .  A
C1203      C1210   1.402       .  A
C1206      C1207   1.397       .  A
C1206      F1211   1.358       .  S
C1207      C1208   1.411       .  A
C1207      F1213   1.358       .  S
C1208      C1209   1.412       .  A
C1209      C1210   1.396       .  A
C1209      F1212   1.358       .  S
C1210      F1214   1.358       .  S
C1217      C1218   1.408       .  A
C1217      C1222   1.403       .  A
C1217      F1235   1.357       .  S
C1218      C1223   1.487       .  S
C1218      C1219   1.407       .  A
C1219      C1220   1.399       .  A
C1219      F1224   1.358       .  S
C1220      C1221   1.404       .  A
C1220      F1236   1.358       .  S
C1221      C1222   1.405       .  A
C1222      F1225   1.358       .  S
C1223      C1226   1.408       .  A
C1223      C1230   1.405       .  A
C1226      C1227   1.404       .  A
C1226      F1231   1.358       .  S
C1227      C1228   1.408       .  A
C1227      F1233   1.358       .  S
C1228      C1229   1.408       .  A
C1229      C1230   1.397       .  A
C1229      F1232   1.358       .  S
C1230      F1234   1.358       .  S
C1237      C1238   1.409   1_545  A
C1237      C1242   1.399       .  A
C1237      F1255   1.358       .  S
C1238      C1243   1.493   1_565  S
C1238      C1239   1.409       .  A
C1239      C1240   1.400       .  A
C1239      F1244   1.358       .  S
C1240      C1241   1.407       .  A
C1240      F1256   1.358       .  S
C1241      C1242   1.406   1_565  A
C1242      F1245   1.358       .  S
C1243      C1246   1.410       .  A
C1243      C1250   1.410       .  A
C1246      C1247   1.400       .  A
C1246      F1251   1.358       .  S
C1247      C1248   1.404       .  A
C1247      F1253   1.358       .  S
C1248      C1249   1.405       .  A
C1249      C1250   1.401       .  A
C1249      F1252   1.358       .  S
C1250      F1254   1.358   1_545  S
C1257      C1258   1.405       .  A
C1257      C1262   1.396       .  A
C1257      F1275   1.358       .  S
C1258      C1263   1.472       .  S
C1258      C1259   1.403       .  A
C1259      C1260   1.392       .  A
C1259      F1264   1.358       .  S
C1260      C1261   1.408       .  A
C1260      F1276   1.358       .  S
C1261      C1262   1.407       .  A
C1262      F1265   1.358       .  S
C1263      C1266   1.403       .  A
C1263      C1270   1.403       .  A
C1266      C1267   1.394       .  A
C1266      F1271   1.358       .  S
C1267      C1268   1.408       .  A
C1267      F1273   1.358       .  S
C1268      C1269   1.409       .  A
C1269      C1270   1.394       .  A
C1269      F1272   1.358       .  S
C1270      F1274   1.358       .  S
C1277      C1278   1.404       .  A
C1277      C1282   1.397       .  A
C1277      F1295   1.358       .  S
C1278      C1283   1.479       .  S
C1278      C1279   1.405       .  A
C1279      C1280   1.399       .  A
C1279      F1284   1.358       .  S
C1280      C1281   1.407       .  A
C1280      F1296   1.358       .  S
C1281      C1282   1.407       .  A
C1282      F1285   1.358       .  S
C1283      C1286   1.404       .  A
C1283      C1290   1.404       .  A
C1286      C1287   1.397       .  A
C1286      F1291   1.358       .  S
C1287      C1288   1.410       .  A
C1287      F1293   1.358       .  S
C1288      C1289   1.411       .  A
C1289      C1290   1.400       .  A
C1289      F1292   1.358   1_545  S
C1290      F1294   1.358   1_545  S
C1297      C1298   1.403       .  A
C1297      C1302   1.397       .  A
C1297      F1315   1.358       .  S
C1298      C1303   1.475       .  S
C1298      C1299   1.402       .  A
C1299      C1300   1.399       .  A
C1299      F1304   1.358       .  S
C1300      C1301   1.408       .  A
C1300      F1316   1.355       .  S
C1301      C1302   1.407       .  A
C1302      F1305   1.358       .  S
C1303      C1306   1.403       .  A
C1303      C1310   1.404       .  A
C1306      C1307   1.399       .  A
C1306      F1311   1.358       .  S
C1307      C1308   1.406       .  A
C1307      F1313   1.358       .  S
C1308      C1309   1.407       .  A
C1309      C1310   1.398       .  A
C1309      F1312   1.358       .  S
C1310      F1314   1.358       .  S
C1317      C1318   1.404       .  A
C1317      C1322   1.398       .  A
C1317      F1335   1.358       .  S
C1318      C1323   1.476       .  S
C1318      C1319   1.403       .  A
C1319      C1320   1.397       .  A
C1319      F1324   1.358       .  S
C1320      C1321   1.407       .  A
C1320      F1336   1.358       .  S
C1321      C1322   1.408       .  A
C1322      F1325   1.358       .  S
C1323      C1326   1.399       .  A
C1323      C1330   1.400       .  A
C1326      C1327   1.397       .  A
C1326      F1331   1.358       .  S
C1327      C1328   1.417       .  A
C1327      F1333   1.356       .  S
C1328      C1329   1.417       .  A
C1329      C1330   1.399       .  A
C1329      F1332   1.357       .  S
C1330      F1334   1.358       .  S
C1337      C1338   1.407       .  A
C1337      C1342   1.397       .  A
C1337      F1355   1.358       .  S
C1338      C1343   1.489       .  S
C1338      C1339   1.408       .  A
C1339      C1340   1.402       .  A
C1339      F1344   1.358       .  S
C1340      C1341   1.409       .  A
C1340      F1356   1.358       .  S
C1341      C1342   1.406       .  A
C1342      F1345   1.357       .  S
C1343      C1346   1.407       .  A
C1343      C1350   1.407       .  A
C1346      C1347   1.401       .  A
C1346      F1351   1.358       .  S
C1347      C1348   1.409       .  A
C1347      F1353   1.358       .  S
C1348      C1349   1.408       .  A
C1349      C1350   1.400       .  A
C1349      F1352   1.358       .  S
C1350      F1354   1.358       .  S
C1357      C1358   1.403       .  A
C1357      C1362   1.398       .  A
C1357      F1375   1.358       .  S
C1358      C1363   1.472       .  S
C1358      C1359   1.404       .  A
C1359      C1360   1.395       .  A
C1359      F1364   1.358       .  S
C1360      C1361   1.404       .  A
C1360      F1376   1.358       .  S
C1361      C1362   1.406       .  A
C1362      F1365   1.358       .  S
C1363      C1366   1.403       .  A
C1363      C1370   1.403       .  A
C1366      C1367   1.397       .  A
C1366      F1371   1.358       .  S
C1367      C1368   1.407       .  A
C1367      F1373   1.358       .  S
C1368      C1369   1.405       .  A
C1369      C1370   1.396       .  A
C1369      F1372   1.357       .  S
C1370      F1374   1.358       .  S
C1377      C1378   1.398       .  A
C1377      C1382   1.396       .  A
C1377      F1395   1.358       .  S
C1378      C1383   1.473       .  S
C1378      C1379   1.400       .  A
C1379      C1380   1.396       .  A
C1379      F1384   1.358   1_565  S
C1380      C1381   1.417       .  A
C1380      F1396   1.353       .  S
C1381      C1382   1.418       .  A
C1382      F1385   1.358       .  S
C1383      C1386   1.402       .  A
C1383      C1390   1.402   1_565  A
C1386      C1387   1.395       .  A
C1386      F1391   1.358       .  S
C1387      C1388   1.409   1_565  A
C1387      F1393   1.357       .  S
C1388      C1389   1.410       .  A
C1389      C1390   1.397       .  A
C1389      F1392   1.357       .  S
C1390      F1394   1.358       .  S
C1397      C1398   1.405       .  A
C1397      C1402   1.400       .  A
C1397      F1415   1.358       .  S
C1398      C1403   1.481   1_565  S
C1398      C1399   1.405       .  A
C1399      C1400   1.398       .  A
C1399      F1404   1.358       .  S
C1400      C1401   1.407       .  A
C1400      F1416   1.358       .  S
C1401      C1402   1.408       .  A
C1402      F1405   1.357       .  S
C1403      C1406   1.405       .  A
C1403      C1410   1.403       .  A
C1406      C1407   1.399       .  A
C1406      F1411   1.358       .  S
C1407      C1408   1.409       .  A
C1407      F1413   1.358       .  S
C1408      C1409   1.411       .  A
C1409      C1410   1.400       .  A
C1409      F1412   1.358       .  S
C1410      F1414   1.358   1_545  S
C1417      C1418   1.403       .  A
C1417      C1422   1.396       .  A
C1417      F1435   1.358       .  S
C1418      C1423   1.479       .  S
C1418      C1419   1.406       .  A
C1419      C1420   1.400       .  A
C1419      F1424   1.358       .  S
C1420      C1421   1.406       .  A
C1420      F1436   1.357       .  S
C1421      C1422   1.408       .  A
C1422      F1425   1.358       .  S
C1423      C1426   1.403       .  A
C1423      C1430   1.403       .  A
C1426      C1427   1.398       .  A
C1426      F1431   1.358       .  S
C1427      C1428   1.412       .  A
C1427      F1433   1.358       .  S
C1428      C1429   1.412       .  A
C1429      C1430   1.397       .  A
C1429      F1432   1.358       .  S
C1430      F1434   1.358       .  S
C1437      C1438   1.404       .  A
C1437      C1442   1.397       .  A
C1437      F1455   1.358       .  S
C1438      C1443   1.476       .  S
C1438      C1439   1.405       .  A
C1439      C1440   1.401       .  A
C1439      F1444   1.358       .  S
C1440      C1441   1.405       .  A
C1440      F1456   1.358       .  S
C1441      C1442   1.404       .  A
C1442      F1445   1.358       .  S
C1443      C1446   1.405       .  A
C1443      C1450   1.403       .  A
C1446      C1447   1.401       .  A
C1446      F1451   1.358       .  S
C1447      C1448   1.407       .  A
C1447      F1453   1.358       .  S
C1448      C1449   1.407       .  A
C1449      C1450   1.396       .  A
C1449      F1452   1.358       .  S
C1450      F1454   1.358       .  S
C1457      C1458   1.409       .  A
C1457      C1462   1.397       .  A
C1457      F1475   1.358       .  S
C1458      C1463   1.487       .  S
C1458      C1459   1.409       .  A
C1459      C1460   1.400       .  A
C1459      F1464   1.357       .  S
C1460      C1461   1.401       .  A
C1460      F1476   1.358       .  S
C1461      C1462   1.402       .  A
C1462      F1465   1.358       .  S
C1463      C1466   1.408       .  A
C1463      C1470   1.405       .  A
C1466      C1467   1.402       .  A
C1466      F1471   1.358       .  S
C1467      C1468   1.407       .  A
C1467      F1473   1.355       .  S
C1468      C1469   1.411       .  A
C1469      C1470   1.394       .  A
C1469      F1472   1.358       .  S
C1470      F1474   1.358       .  S
C1477      C1478   1.399       .  A
C1477      C1482   1.397       .  A
C1477      F1495   1.358       .  S
C1478      C1483   1.472       .  S
C1478      C1479   1.397       .  A
C1479      C1480   1.397       .  A
C1479      F1484   1.358       .  S
C1480      C1481   1.417       .  A
C1480      F1496   1.358       .  S
C1481      C1482   1.419       .  A
C1482      F1485   1.354       .  S
C1483      C1486   1.402       .  A
C1483      C1490   1.401       .  A
C1486      C1487   1.399       .  A
C1486      F1491   1.358       .  S
C1487      C1488   1.409       .  A
C1487      F1493   1.357       .  S
C1488      C1489   1.409       .  A
C1489      C1490   1.396       .  A
C1489      F1492   1.358       .  S
C1490      F1494   1.358       .  S
C1497      C1498   1.403       .  A
C1497      C1502   1.398       .  A
C1497      F1515   1.358       .  S
C1498      C1503   1.472       .  S
C1498      C1499   1.401       .  A
C1499      C1500   1.396       .  A
C1499      F1504   1.358       .  S
C1500      C1501   1.408       .  A
C1500      F1516   1.357       .  S
C1501      C1502   1.409       .  A
C1502      F1505   1.358       .  S
C1503      C1506   1.404       .  A
C1503      C1510   1.404       .  A
C1506      C1507   1.398       .  A
C1506      F1511   1.358       .  S
C1507      C1508   1.405       .  A
C1507      F1513   1.358       .  S
C1508      C1509   1.404       .  A
C1509      C1510   1.396       .  A
C1509      F1512   1.358       .  S
C1510      F1514   1.358       .  S
C1517      C1518   1.404       .  A
C1517      C1522   1.397       .  A
C1517      F1535   1.358       .  S
C1518      C1523   1.477       .  S
C1518      C1519   1.404       .  A
C1519      C1520   1.399       .  A
C1519      F1524   1.358       .  S
C1520      C1521   1.408       .  A
C1520      F1536   1.357       .  S
C1521      C1522   1.406       .  A
C1522      F1525   1.358       .  S
C1523      C1526   1.406       .  A
C1523      C1530   1.404       .  A
C1526      C1527   1.401       .  A
C1526      F1531   1.357       .  S
C1527      C1528   1.403       .  A
C1527      F1533   1.357       .  S
C1528      C1529   1.405       .  A
C1529      C1530   1.396       .  A
C1529      F1532   1.358       .  S
C1530      F1534   1.358       .  S
C1537      C1538   1.401       .  A
C1537      C1542   1.399       .  A
C1537      F1555   1.358       .  S
C1538      C1543   1.476       .  S
C1538      C1539   1.399       .  A
C1539      C1540   1.396       .  A
C1539      F1544   1.358       .  S
C1540      C1541   1.417       .  A
C1540      F1556   1.357       .  S
C1541      C1542   1.417       .  A
C1542      F1545   1.356       .  S
C1543      C1546   1.404       .  A
C1543      C1550   1.402       .  A
C1546      C1547   1.399       .  A
C1546      F1551   1.358       .  S
C1547      C1548   1.408       .  A
C1547      F1553   1.357       .  S
C1548      C1549   1.410       .  A
C1549      C1550   1.397       .  A
C1549      F1552   1.357       .  S
C1550      F1554   1.358       .  S
C1557      C1558   1.404       .  A
C1557      C1562   1.400       .  A
C1557      F1575   1.358       .  S
C1558      C1563   1.487       .  S
C1558      C1559   1.406       .  A
C1559      C1560   1.401       .  A
C1559      F1564   1.358       .  S
C1560      C1561   1.412       .  A
C1560      F1576   1.358       .  S
C1561      C1562   1.413       .  A
C1562      F1565   1.358       .  S
C1563      C1566   1.405       .  A
C1563      C1570   1.407       .  A
C1566      C1567   1.400       .  A
C1566      F1571   1.358   1_554  S
C1567      C1568   1.410       .  A
C1567      F1573   1.357   1_554  S
C1568      C1569   1.408       .  A
C1569      C1570   1.401       .  A
C1569      F1572   1.357       .  S
C1570      F1574   1.358       .  S
C1577      C1578   1.406       .  A
C1577      C1582   1.396       .  A
C1577      F1595   1.358       .  S
C1578      C1583   1.480       .  S
C1578      C1579   1.407       .  A
C1579      C1580   1.400       .  A
C1579      F1584   1.358       .  S
C1580      C1581   1.403       .  A
C1580      F1596   1.355       .  S
C1581      C1582   1.405       .  A
C1582      F1585   1.358       .  S
C1583      C1586   1.404       .  A
C1583      C1590   1.406       .  A
C1586      C1587   1.398       .  A
C1586      F1591   1.358       .  S
C1587      C1588   1.409       .  A
C1587      F1593   1.358       .  S
C1588      C1589   1.407       .  A
C1589      C1590   1.398       .  A
C1589      F1592   1.358       .  S
C1590      F1594   1.358       .  S
C1597      C1598   1.408       .  A
C1597      C1602   1.401       .  A
C1597      F1615   1.358       .  S
C1598      C1603   1.484       .  S
C1598      C1599   1.407       .  A
C1599      C1600   1.397       .  A
C1599      F1604   1.358       .  S
C1600      C1601   1.404       .  A
C1600      F1616   1.358       .  S
C1601      C1602   1.402       .  A
C1602      F1605   1.358       .  S
C1603      C1606   1.407       .  A
C1603      C1610   1.406       .  A
C1606      C1607   1.398       .  A
C1606      F1611   1.358       .  S
C1607      C1608   1.406       .  A
C1607      F1613   1.358       .  S
C1608      C1609   1.407       .  A
C1609      C1610   1.400       .  A
C1609      F1612   1.358       .  S
C1610      F1614   1.358       .  S
C1617      C1618   1.405       .  A
C1617      C1622   1.401       .  A
C1617      F1635   1.358       .  S
C1618      C1623   1.484       .  S
C1618      C1619   1.404       .  A
C1619      C1620   1.397       .  A
C1619      F1624   1.358       .  S
C1620      C1621   1.412       .  A
C1620      F1636   1.358       .  S
C1621      C1622   1.413       .  A
C1622      F1625   1.357       .  S
C1623      C1626   1.406       .  A
C1623      C1630   1.406       .  A
C1626      C1627   1.398       .  A
C1626      F1631   1.358       .  S
C1627      C1628   1.408       .  A
C1627      F1633   1.358       .  S
C1628      C1629   1.407       .  A
C1629      C1630   1.400       .  A
C1629      F1632   1.358       .  S
C1630      F1634   1.358       .  S
C1637      C1638   1.402       .  A
C1637      C1642   1.397       .  A
C1637      F1655   1.358       .  S
C1638      C1643   1.473       .  S
C1638      C1639   1.403       .  A
C1639      C1640   1.398       .  A
C1639      F1644   1.358       .  S
C1640      C1641   1.409       .  A
C1640      F1656   1.358       .  S
C1641      C1642   1.408       .  A
C1642      F1645   1.358       .  S
C1643      C1646   1.402       .  A
C1643      C1650   1.403       .  A
C1646      C1647   1.396       .  A
C1646      F1651   1.358       .  S
C1647      C1648   1.408       .  A
C1647      F1653   1.358       .  S
C1648      C1649   1.409       .  A
C1649      C1650   1.398       .  A
C1649      F1652   1.357       .  S
C1650      F1654   1.358       .  S
C1657      C1658   1.404       .  A
C1657      C1662   1.401       .  A
C1657      F1675   1.358       .  S
C1658      C1663   1.473       .  S
C1658      C1659   1.401       .  A
C1659      C1660   1.396       .  A
C1659      F1664   1.358       .  S
C1660      C1661   1.407       .  A
C1660      F1676   1.358       .  S
C1661      C1662   1.408       .  A
C1662      F1665   1.358       .  S
C1663      C1666   1.400       .  A
C1663      C1670   1.401       .  A
C1666      C1667   1.396       .  A
C1666      F1671   1.358       .  S
C1667      C1668   1.413       .  A
C1667      F1673   1.358       .  S
C1668      C1669   1.414       .  A
C1669      C1670   1.401       .  A
C1669      F1672   1.358   1_556  S
C1670      F1674   1.358       .  S
C1677      C1678   1.408       .  A
C1677      C1682   1.400       .  A
C1677      F1695   1.358       .  S
C1678      C1683   1.486       .  S
C1678      C1679   1.406       .  A
C1679      C1680   1.398       .  A
C1679      F1684   1.358       .  S
C1680      C1681   1.408       .  A
C1680      F1696   1.358       .  S
C1681      C1682   1.407       .  A
C1682      F1685   1.358       .  S
C1683      C1686   1.405       .  A
C1683      C1690   1.407       .  A
C1686      C1687   1.397       .  A
C1686      F1691   1.358       .  S
C1687      C1688   1.410       .  A
C1687      F1693   1.358       .  S
C1688      C1689   1.410       .  A
C1689      C1690   1.400       .  A
C1689      F1692   1.358       .  S
C1690      F1694   1.358       .  S
