geometry optimzed in LAMMPS
_audit_creation_date              2020-12-01 
_audit_creation_method            'lammps2cif' 
_symmetry_space_group_name_H-M    'P1' 
_symmetry_Int_Tables_number       1 
_symmetry_cell_setting            triclinic 
loop_ 
_symmetry_equiv_pos_as_xyz 
  x,y,z 
_cell_length_a                    42.51197087 
_cell_length_b                    45.0026401332979 
_cell_length_c                    43.73088780251123 
_cell_angle_alpha                 90.35487909885815 
_cell_angle_beta                  90.63695782819879 
_cell_angle_gamma                 88.04334175587871 
loop_ 
_atom_site_label 
_atom_site_type_symbol 
_atom_site_fract_x 
_atom_site_fract_y 
_atom_site_fract_z 
_atom_site_charge 
C1          C  0.53297332  0.25368904  0.12913619     0.29400
C2          C  0.48056722  0.22004017  0.12362874     0.29400
C3          C  0.51043338  0.25415019  0.15590376    -0.06800
C4          C  0.51037635  0.26246254  0.10252731    -0.07600
C5          C  0.53972484  0.22043277  0.12240942    -0.07500
C6          C  0.48408615  0.23683630  0.15430862    -0.06800
C7          C  0.48316394  0.24501984  0.09985095    -0.07600
C8          C  0.51290959  0.20293826  0.12089069    -0.07500
C9          C  0.46258057  0.25035800  0.17444880    -0.32900
N10         N  0.47541602  0.27476729  0.18709626     0.13600
C11         C  0.50383823  0.27759091  0.17501270    -0.32900
H12         H  0.51735551  0.29747020  0.17717093     0.15600
C13         C  0.47487264  0.24450122  0.06936935    -0.31800
N14         N  0.49506264  0.26089454  0.05360646     0.12400
C15         C  0.51746855  0.27054178  0.07302997    -0.31800
C16         C  0.52261254  0.17605223  0.13374571    -0.32100
N17         N  0.55348177  0.17605883  0.14135480     0.12900
H18         H  0.50712098  0.16025262  0.14356746     0.15500
C19         C  0.56453761  0.20233307  0.13219275    -0.32100
H20         H  0.58739201  0.21020657  0.13882654     0.15500
H21         H  0.53985081  0.27843463  0.06553476     0.15500
H22         H  0.43861020  0.24430109  0.17826370     0.15600
H23         H  0.45870310  0.22933277  0.05883404     0.15500
C24         C  0.96190254  0.49707346  0.12968385     0.29400
C25         C  0.00270580  0.03668241  0.12909839     0.29400
C26         C  0.98594299  0.49908368  0.15563733    -0.06800
C27         C  0.98354000  0.49527482  0.10118175    -0.07600
C28         C  0.94748699  0.02193823  0.12787081    -0.07500
C29         C  0.00680974  0.52183844  0.15414704    -0.06800
C30         C  0.00549532  0.01272517  0.10315642    -0.07600
C31         C  0.96701863  0.04556403  0.12688058    -0.07500
C32         C  0.03435574  0.51118688  0.16832289    -0.32900
N33         N  0.03049882  0.48316732  0.17835689     0.13600
C34         C  0.00106918  0.47566029  0.17076575    -0.32900
H35         H  0.99175094  0.45388609  0.17426075     0.15600
C36         C  0.01028639  0.01688811  0.07229913    -0.31800
N37         N  0.99202438  0.50591798  0.05208004     0.12400
C38         C  0.97610709  0.48822896  0.07104131    -0.31800
C39         C  0.94671414  0.07062933  0.12529431    -0.32100
N40         N  0.91597942  0.06218757  0.12627364     0.12900
H41         H  0.95399614  0.09339012  0.12664624     0.15500
C42         C  0.91722481  0.03210749  0.12453089    -0.32100
H43         H  0.89784968  0.01762657  0.12484861     0.15500
H44         H  0.95867873  0.47274491  0.06349648     0.15500
H45         H  0.05656687  0.52223631  0.16913750     0.15600
H46         H  0.02267709  0.03490354  0.06214332     0.15500
C47         C  0.54274642  0.23700009  0.45816780     0.29400
C48         C  0.49883269  0.28351216  0.45675387     0.29400
C49         C  0.52167422  0.23982917  0.42955586    -0.06800
C50         C  0.51783913  0.24034794  0.97847638    -0.07600
C51         C  0.55657157  0.26858059  0.46002268    -0.07500
C52         C  0.49936070  0.26281056  0.42899241    -0.06800
C53         C  0.49665949  0.26476386  0.97199492    -0.07600
C54         C  0.53373907  0.29272666  0.45813835    -0.07500
C55         C  0.48000668  0.25823679  0.40400589    -0.32900
N56         N  0.48982727  0.23279892  0.39000654     0.13600
C57         C  0.51583735  0.22213283  0.40465792    -0.32900
H58         H  0.52746721  0.20124771  0.39897096     0.15600
C59         C  0.48720385  0.27563805  0.00020307    -0.31800
N60         N  0.49956496  0.25745816  0.02212738     0.12400
C61         C  0.51883861  0.23648424  0.00946987    -0.31800
C62         C  0.54767753  0.31416058  0.44068943    -0.32100
N63         N  0.57737387  0.30539734  0.43386091     0.12900
H64         H  0.53537153  0.33186415  0.42841041     0.15500
C65         C  0.58308265  0.27830813  0.44589921    -0.32100
H66         H  0.60326394  0.26471449  0.43961450     0.15500
H67         H  0.53414208  0.22115584  0.02212507     0.15500
H68         H  0.45869833  0.27068847  0.39789948     0.15600
H69         H  0.47416399  0.29621260  0.00474768     0.15500
C70         C  0.02274804  0.46274967  0.44633657     0.29400
C71         C  0.96759894  0.00231310  0.43768490     0.29400
C72         C  0.99024886  0.44876066  0.43930681    -0.06800
C73         C  0.01415607  0.48428471  0.47276305    -0.07600
C74         C  0.02048722  0.98352943  0.42040085    -0.07500
C75         C  0.96542106  0.46912072  0.43499601    -0.06800
C76         C  0.98475822  0.00717762  0.46891680    -0.07600
C77         C  0.99494182  0.00291176  0.41556847    -0.07500
C78         C  0.93853110  0.45406865  0.42963808    -0.32900
N79         N  0.94577433  0.42460064  0.42804576     0.13600
C80         C  0.97728969  0.42113798  0.43394206    -0.32900
H81         H  0.98993572  0.40015772  0.43168147     0.15600
C82         C  0.97739787  0.00662476  0.00271983    -0.31800
N83         N  0.99584901  0.99261996  0.02431997     0.12400
C84         C  0.01630062  0.48330333  0.00739304    -0.31800
C85         C  0.00471593  0.02616392  0.39835783    -0.32100
N86         N  0.03520021  0.02168281  0.39159923     0.12900
H87         H  0.99097245  0.04605015  0.39244441     0.15500
C88         C  0.04538714  0.99580783  0.40466407    -0.32100
H89         H  0.06938323  0.98729031  0.40338845     0.15500
H90         H  0.03138466  0.46767436  0.01990304     0.15500
H91         H  0.91628659  0.46451580  0.42293747     0.15600
H92         H  0.95793074  0.02197125  0.00757193     0.15500
O93         O  0.69098883  0.36888399  0.24777436    -0.82400
C94         C  0.56232673  0.39339595  0.26062129     0.96900
O95         O  0.57683045  0.40204969  0.23664627    -0.71500
O96         O  0.63016870  0.42923729  0.24640230    -0.75100
Al97       Al  0.62215846  0.39423818  0.22427684     1.49000
C98         C  0.64893318  0.43522245  0.26776968     0.92200
O99         O  0.63934104  0.37418504  0.31733663    -0.81400
O100        O  0.63162945  0.31111963  0.25267375    -0.74900
Al101      Al  0.66308025  0.37163119  0.28013158     1.90100
O102        O  0.61081227  0.33683383  0.30436769    -0.74000
O103        O  0.58301006  0.33888883  0.22378330    -0.73800
O104        O  0.57168651  0.37040813  0.27472309    -0.79500
O105        O  0.61407219  0.36287558  0.19498492    -0.77700
O106        O  0.62926256  0.36973421  0.25570498    -1.13800
O107        O  0.66590631  0.39066390  0.20925076    -0.73000
C108        C  0.69064111  0.37807471  0.22074668     0.97700
C109        C  0.62300815  0.35260051  0.32468544     0.94100
Al110      Al  0.60169608  0.34190698  0.26302330     1.55600
O111        O  0.66412045  0.41451919  0.28141359    -0.77600
C112        C  0.59511347  0.34242653  0.19819655     0.98300
C113        C  0.65642683  0.30685943  0.26873704     0.93100
O114        O  0.66884356  0.32840663  0.28303290    -0.83000
O115        O  0.69000303  0.11632419  0.32465581    -0.82400
C116        C  0.56312641  0.10695204  0.32362087     0.96900
O117        O  0.58537448  0.08884195  0.33210051    -0.71500
O118        O  0.64543350  0.06711715  0.33264652    -0.75100
Al119      Al  0.62500292  0.10061213  0.35147428     1.49000
C120        C  0.65136405  0.06076863  0.30540685     0.92200
O121        O  0.63073888  0.12978254  0.26029690    -0.81400
O122        O  0.63223066  0.18778923  0.31678775    -0.74900
Al123      Al  0.65833739  0.12304409  0.29396923     1.90100
O124        O  0.59281159  0.15711734  0.28068358    -0.74000
O125        O  0.60767215  0.16829742  0.36500097    -0.73800
O126        O  0.56563466  0.13478020  0.32798879    -0.79500
O127        O  0.60277697  0.12406977  0.38251081    -0.77700
O128        O  0.62872348  0.12792000  0.32241766    -1.13800
O129        O  0.66531785  0.11194037  0.36924783    -0.73000
C130        C  0.69030683  0.11602114  0.35376871     0.97700
C131        C  0.60530942  0.14483987  0.25774936     0.94100
Al132      Al  0.60197286  0.15916483  0.32275061     1.55600
O133        O  0.65230873  0.08153616  0.28652988    -0.77600
C134        C  0.60186852  0.15171921  0.38688178     0.98300
C135        C  0.65785711  0.18740215  0.30291839     0.93100
O136        O  0.67040304  0.16343732  0.29340725    -0.83000
O137        O  0.32804709  0.39382320  0.32151890    -0.82400
C138        C  0.45180834  0.40176025  0.33069176     0.96900
O139        O  0.42918299  0.41989651  0.33808599    -0.71500
O140        O  0.36800160  0.43939405  0.33508941    -0.75100
Al141      Al  0.38944438  0.40730725  0.35515740     1.49000
C142        C  0.36925954  0.44672006  0.30770345     0.92200
O143        O  0.39273279  0.37514320  0.26313096    -0.81400
O144        O  0.38363379  0.32032605  0.32249412    -0.74900
Al145      Al  0.36250025  0.38481713  0.29427413     1.90100
O146        O  0.42605294  0.34764003  0.29001539    -0.74000
O147        O  0.40604639  0.34154247  0.37177213    -0.73800
O148        O  0.45026284  0.37401239  0.33657946    -0.79500
O149        O  0.41244416  0.38597673  0.38769078    -0.77700
O150        O  0.38852218  0.37967961  0.32606026    -1.13800
O151        O  0.34850549  0.39420971  0.36912400    -0.73000
C152        C  0.32487098  0.39206848  0.35049390     0.97700
C153        C  0.41656294  0.35773195  0.26486972     0.94100
Al154      Al  0.41442325  0.34855757  0.33005135     1.55600
O155        O  0.37230032  0.42631978  0.28792866    -0.77600
C156        C  0.41446970  0.35853818  0.39264816     0.98300
C157        C  0.35962723  0.32072563  0.30539409     0.93100
O158        O  0.34898134  0.34458473  0.29349117    -0.83000
O159        O  0.32426222  0.12866228  0.25826125    -0.82400
C160        C  0.44954864  0.10892503  0.25008908     0.96900
O161        O  0.42599142  0.09246034  0.24616952    -0.71500
O162        O  0.36554167  0.07819166  0.25260926    -0.75100
Al163      Al  0.38577686  0.10644003  0.22817612     1.49000
C164        C  0.36372526  0.07531648  0.28095993     0.92200
O165        O  0.38909169  0.15125903  0.31579128    -0.81400
O166        O  0.38682668  0.19767376  0.25768741    -0.74900
Al167      Al  0.35872913  0.13880382  0.28521346     1.90100
O168        O  0.42872238  0.16348288  0.28727888    -0.74000
O169        O  0.40064263  0.17112848  0.20794076    -0.73800
O170        O  0.44786618  0.13547059  0.23991475    -0.79500
O171        O  0.40587959  0.12538966  0.19332293    -0.77700
O172        O  0.38564154  0.13709422  0.25437257    -1.13800
O173        O  0.34499153  0.11937329  0.21226106    -0.73000
C174        C  0.32132147  0.12552822  0.22930142     0.97700
C175        C  0.41642097  0.16132481  0.31292729     0.94100
Al176      Al  0.41364596  0.16458955  0.24847191     1.55600
O177        O  0.36708961  0.09782004  0.29795241    -0.77600
C178        C  0.40513600  0.15275055  0.18687473     0.98300
C179        C  0.36039649  0.20125608  0.26999163     0.93100
O180        O  0.34564102  0.17932418  0.27930194    -0.83000
O181        O  0.19153319  0.36539302  0.31474865    -0.82400
C182        C  0.06825380  0.36641497  0.32415818     0.96900
O183        O  0.08890986  0.34549095  0.32978291    -0.71500
O184        O  0.14908505  0.32103053  0.32609479    -0.75100
Al185      Al  0.13021961  0.35308237  0.34770773     1.49000
C186        C  0.14571541  0.31457502  0.29860795     0.92200
O187        O  0.12310790  0.39097972  0.25917404    -0.81400
O188        O  0.14660711  0.44061334  0.32497618    -0.74900
Al189      Al  0.15576335  0.37717111  0.28832058     1.90100
O190        O  0.09948241  0.42299564  0.28979898    -0.74000
O191        O  0.12156527  0.41707969  0.37225073    -0.73800
O192        O  0.07311771  0.39333147  0.33270274    -0.79500
O193        O  0.10983375  0.37236252  0.38164634    -0.77700
O194        O  0.13282062  0.38252405  0.32137521    -1.13800
O195        O  0.17204727  0.36254438  0.36241533    -0.73000
C196        C  0.19524676  0.36577109  0.34403673     0.97700
C197        C  0.10473562  0.41355258  0.26339080     0.94100
Al198      Al  0.11172777  0.41566754  0.32953041     1.55600
O199        O  0.14278268  0.33593456  0.27998279    -0.77600
C200        C  0.11145919  0.39864123  0.39055897     0.98300
C201        C  0.16610795  0.44025808  0.30333667     0.93100
O202        O  0.17189554  0.41657811  0.28842625    -0.83000
O203        O  0.18637591  0.13174813  0.25553540    -0.82400
C204        C  0.06318115  0.13873261  0.24408852     0.96900
O205        O  0.08405721  0.15808689  0.23948183    -0.71500
O206        O  0.14335084  0.17934047  0.24324946    -0.75100
Al207      Al  0.12460032  0.14789269  0.22202383     1.49000
C208        C  0.14186525  0.18603057  0.27082892     0.92200
O209        O  0.11855920  0.11261019  0.31034529    -0.81400
O210        O  0.14206961  0.05928568  0.24603552    -0.74900
Al211      Al  0.15136879  0.12278682  0.28189763     1.90100
O212        O  0.09535737  0.08043656  0.28066770    -0.74000
O213        O  0.11590533  0.08401672  0.19820510    -0.73800
O214        O  0.06829760  0.11103984  0.23765273    -0.79500
O215        O  0.10272402  0.12912287  0.18859907    -0.77700
O216        O  0.12802933  0.11849777  0.24873933    -1.13800
O217        O  0.16610623  0.13665469  0.20762947    -0.73000
C218        C  0.18965297  0.13336550  0.22633994     0.97700
C219        C  0.09875371  0.09236249  0.30626955     0.94100
Al220      Al  0.10706141  0.08629561  0.24100243     1.55600
O221        O  0.13957519  0.16503280  0.28965140    -0.77600
C222        C  0.10222152  0.10232875  0.18094291     0.98300
C223        C  0.16144213  0.05854400  0.26818076     0.93100
O224        O  0.16701624  0.08202928  0.28303841    -0.83000
O225        O  0.81718922  0.38324190  0.24611861    -0.82400
C226        C  0.94899218  0.36357903  0.26100118     0.96900
O227        O  0.93338249  0.35276011  0.23855710    -0.71500
O228        O  0.88380278  0.32098646  0.25228995    -0.75100
Al229      Al  0.88708714  0.35532337  0.22848269     1.49000
C230        C  0.85988123  0.31295068  0.26628827     0.92200
O231        O  0.86421795  0.36653641  0.31762655    -0.81400
O232        O  0.86968578  0.43772859  0.26380627    -0.74900
Al233      Al  0.84178580  0.37490118  0.28069306     1.90100
O234        O  0.89401594  0.40541151  0.31366887    -0.74000
O235        O  0.91546651  0.41720567  0.23012238    -0.73800
O236        O  0.93639342  0.38291985  0.27808797    -0.79500
O237        O  0.89176154  0.38631471  0.19960705    -0.77700
O238        O  0.87714994  0.37938408  0.25971219    -1.13800
O239        O  0.84269148  0.35408006  0.21325729    -0.73000
C240        C  0.81817980  0.36964874  0.22092640     0.97700
C241        C  0.88308325  0.38453634  0.32930546     0.94100
Al242      Al  0.90185098  0.40842556  0.27044129     1.55600
O243        O  0.83930295  0.33219379  0.27457114    -0.77600
C244        C  0.90682125  0.40954319  0.20356685     0.98300
C245        C  0.84509968  0.43962315  0.27945492     0.93100
O246        O  0.83470527  0.41668307  0.29194614    -0.83000
O247        O  0.81092651  0.12422061  0.31708453    -0.82400
C248        C  0.94037080  0.13364207  0.29525582     0.96900
O249        O  0.92768863  0.14340530  0.32006369    -0.71500
O250        O  0.87719326  0.17775725  0.31123923    -0.75100
Al251      Al  0.88267671  0.14272875  0.33367581     1.49000
C252        C  0.85605115  0.18671964  0.29296014     0.92200
O253        O  0.85420561  0.12829524  0.24307264    -0.81400
O254        O  0.86552484  0.06240089  0.30322594    -0.74900
Al255      Al  0.83467240  0.12589550  0.28204647     1.90100
O256        O  0.88259104  0.08746730  0.24929927    -0.74000
O257        O  0.91541167  0.08158892  0.33077308    -0.73800
O258        O  0.92749361  0.11357782  0.27985412    -0.79500
O259        O  0.88946787  0.11074315  0.36188695    -0.77700
O260        O  0.87095767  0.11961043  0.30254151    -1.13800
O261        O  0.84023321  0.14603888  0.35171777    -0.73000
C262        C  0.81447300  0.13450354  0.34351325     0.97700
C263        C  0.86923085  0.10644491  0.23184234     0.94100
Al264      Al  0.89569497  0.08896580  0.29171626     1.55600
O265        O  0.83564390  0.16911122  0.28300295    -0.77600
C266        C  0.90625022  0.08772166  0.35748748     0.98300
C267        C  0.83835433  0.06090440  0.29170688     0.93100
O268        O  0.82578395  0.08312869  0.27761859    -0.83000
C269        C  0.88480888  0.26297442  0.27320481    -0.09800
C270        C  0.85697679  0.28066458  0.27280815     0.06400
C271        C  0.82803454  0.26664604  0.27731548    -0.03600
C272        C  0.82777330  0.23575070  0.28257009    -0.08000
C273        C  0.85594462  0.21845227  0.28372910     0.05500
C274        C  0.88457183  0.23250070  0.27849917    -0.03000
Br275      Br  0.92455697  0.21141845  0.27711879    -0.02700
H276        H  0.90729292  0.27293823  0.26950784     0.09400
H277        H  0.80557847  0.22537121  0.28655779     0.07500
Br278      Br  0.78816089  0.28796751  0.27578336    -0.03200
C279        C  0.81910290  0.48636424  0.26039891    -0.09800
C280        C  0.83098042  0.46948626  0.28512794     0.06400
C281        C  0.83612930  0.48380288  0.31330705    -0.03600
C282        C  0.83069137  0.01490903  0.32027005    -0.08000
C283        C  0.82377023  0.03154596  0.29375562     0.05500
C284        C  0.81301248  0.01645553  0.26756763    -0.03000
Br285      Br  0.79716370  0.03700836  0.23217712    -0.02700
H286        H  0.81441963  0.47566522  0.23875194     0.09400
H287        H  0.83838118  0.02612136  0.34091672     0.07500
Br288      Br  0.85201934  0.46298436  0.34848975    -0.03200
C289        C  0.99712597  0.14933662  0.30184107    -0.09800
C290        C  0.97089133  0.14418926  0.28294214     0.06400
C291        C  0.97548325  0.14469347  0.25091706    -0.03600
C292        C  0.00553631  0.14571952  0.23852455    -0.08000
C293        C  0.03203381  0.14751606  0.25726707     0.05500
C294        C  0.02745433  0.15160839  0.28912260    -0.03000
Br295      Br  0.06179958  0.15964485  0.31614953    -0.02700
H296        H  0.99443553  0.15001146  0.32643066     0.09400
H297        H  0.00824798  0.14407938  0.21401100     0.07500
Br298      Br  0.94163308  0.14363415  0.22234178    -0.03200
C299        C  0.03027071  0.38355011  0.28343569    -0.09800
C300        C  0.03944351  0.36119338  0.30443710     0.06400
C301        C  0.02152369  0.33521484  0.30455743    -0.03600
C302        C  0.99360920  0.33363539  0.28640680    -0.08000
C303        C  0.98332816  0.35740311  0.26742067     0.05500
C304        C  0.00342007  0.38147683  0.26475911    -0.03000
Br305      Br  0.99352085  0.41367622  0.23731813    -0.02700
H306        H  0.04370791  0.40338822  0.28180153     0.09400
H307        H  0.97863713  0.31485753  0.28907459     0.07500
Br308      Br  0.03204629  0.30292258  0.33153674    -0.03200
C309        C  0.13615740  0.23991603  0.25578434    -0.09800
C310        C  0.14243858  0.21870391  0.27911729     0.06400
C311        C  0.14990542  0.22967689  0.30846977    -0.03600
C312        C  0.15123577  0.26058393  0.31368303    -0.08000
C313        C  0.14504483  0.28184775  0.29031916     0.05500
C314        C  0.13721190  0.27083598  0.26104487    -0.03000
Br315      Br  0.12687457  0.29654576  0.22730965    -0.02700
H316        H  0.13005100  0.23244197  0.23295906     0.09400
H317        H  0.15723824  0.26795871  0.33656504     0.07500
Br318      Br  0.15953128  0.20383529  0.34227874    -0.03200
C319        C  0.18081626  0.49248656  0.31386146    -0.09800
C320        C  0.17815407  0.46913066  0.29267871     0.06400
C321        C  0.17853534  0.47615123  0.26110905    -0.03600
C322        C  0.17648699  0.00547930  0.25755651    -0.08000
C323        C  0.17433695  0.02898980  0.27877326     0.05500
C324        C  0.17715107  0.02199635  0.31029710    -0.03000
Br325      Br  0.17524348  0.05149985  0.34217823    -0.02700
H326        H  0.18115789  0.48766032  0.33811201     0.09400
H327        H  0.17453847  0.01022034  0.23333340     0.07500
Br328      Br  0.17727929  0.44663744  0.22924801    -0.03200
C329        C  0.23956278  0.15815424  0.21771004    -0.09800
C330        C  0.22234032  0.13226488  0.21523050     0.06400
C331        C  0.23865117  0.10488574  0.21029082    -0.03600
C332        C  0.27174823  0.10352348  0.21031484    -0.08000
C333        C  0.28895380  0.12896809  0.21648719     0.05500
C334        C  0.27253060  0.15666826  0.21839028    -0.03000
Br335      Br  0.29399135  0.19295227  0.22418413    -0.02700
H336        H  0.22736688  0.17934229  0.22170513     0.09400
H337        H  0.28394332  0.08219138  0.20809459     0.07500
Br338      Br  0.21677590  0.06842269  0.20730682    -0.03200
C339        C  0.23665410  0.40206564  0.35510292    -0.09800
C340        C  0.22739381  0.37237267  0.35574914     0.06400
C341        C  0.25079222  0.34989237  0.36061758    -0.03600
C342        C  0.28276549  0.35718194  0.36339495    -0.08000
C343        C  0.29221913  0.38676572  0.36074781     0.05500
C344        C  0.26856396  0.40927738  0.35715990    -0.03000
Br345      Br  0.27918967  0.44985705  0.35075717    -0.02700
H346        H  0.21918279  0.41960993  0.35046219     0.09400
H347        H  0.30052864  0.33938469  0.36464638     0.07500
Br348      Br  0.24043380  0.30878314  0.35977802    -0.03200
C349        C  0.34932258  0.28455387  0.26463582    -0.09800
C350        C  0.34733465  0.29187786  0.29580377     0.06400
C351        C  0.34263410  0.26914027  0.31707421    -0.03600
C352        C  0.34248209  0.23945563  0.30723856    -0.08000
C353        C  0.34878076  0.23190091  0.27664466     0.05500
C354        C  0.35093756  0.25482895  0.25503079    -0.03000
Br355      Br  0.35916490  0.24682075  0.21268016    -0.02700
H356        H  0.35335804  0.30177825  0.24808971     0.09400
H357        H  0.34080314  0.22210361  0.32411335     0.07500
Br358      Br  0.33969243  0.27736641  0.36007095    -0.03200
C359        C  0.35988561  0.48727115  0.26913881    -0.09800
C360        C  0.36663984  0.47907484  0.29949269     0.06400
C361        C  0.37067966  0.50226859  0.32144837    -0.03600
C362        C  0.38021140  0.03277185  0.31476178    -0.08000
C363        C  0.35911498  0.04479647  0.29302866     0.05500
C364        C  0.33729712  0.02565299  0.27928707    -0.03000
Br365      Br  0.30491450  0.04020587  0.25205638    -0.02700
H366        H  0.35647870  0.47026136  0.25189930     0.09400
H367        H  0.39702842  0.04691378  0.32568796     0.07500
Br368      Br  0.38282397  0.49547358  0.36337009    -0.03200
C369        C  0.50775400  0.09385775  0.25603182    -0.09800
C370        C  0.47798632  0.09895554  0.26919236     0.06400
C371        C  0.47684481  0.09859884  0.30161468    -0.03600
C372        C  0.50458823  0.09980297  0.31958902    -0.08000
C373        C  0.53439455  0.09703692  0.30630673     0.05500
C374        C  0.53537904  0.09109513  0.27446371    -0.03000
Br375      Br  0.57389006  0.07887969  0.25530305    -0.02700
H376        H  0.50965122  0.09232921  0.23139555     0.09400
H377        H  0.50281933  0.10295450  0.34409543     0.07500
Br378      Br  0.43848250  0.09447618  0.32295334    -0.03200
C379        C  0.73223011  0.15060129  0.36762930    -0.09800
C380        C  0.72140055  0.12136579  0.36818384     0.06400
C381        C  0.74385401  0.09776604  0.37049869    -0.03600
C382        C  0.77610705  0.10328065  0.36845526    -0.08000
C383        C  0.78666549  0.13217854  0.36347005     0.05500
C384        C  0.76454466  0.15610521  0.36532368    -0.03000
Br385      Br  0.77695968  0.19612442  0.35881928    -0.02700
H386        H  0.71536684  0.16903068  0.36513952     0.09400
H387        H  0.79260447  0.08447891  0.36647067     0.07500
Br388      Br  0.73117514  0.05726904  0.37039543    -0.03200
C389        C  0.53573442  0.41562676  0.30590133    -0.09800
C390        C  0.53401273  0.40884277  0.27436867     0.06400
C391        C  0.50385460  0.40720811  0.26095828    -0.03600
C392        C  0.47675777  0.40851132  0.27952165    -0.08000
C393        C  0.47895037  0.41135995  0.31167537     0.05500
C394        C  0.50874136  0.41698768  0.32435779    -0.03000
Br395      Br  0.51408058  0.42516691  0.36695426    -0.02700
H396        H  0.55862678  0.41722327  0.31683614     0.09400
H397        H  0.45403578  0.40520655  0.26894729     0.07500
Br398      Br  0.49905292  0.39979607  0.21799117    -0.03200
C399        C  0.73853648  0.39958452  0.19856860    -0.09800
C400        C  0.72115566  0.37435369  0.20442848     0.06400
C401        C  0.73756837  0.34642236  0.20510010    -0.03600
C402        C  0.77055144  0.34447061  0.20414532    -0.08000
C403        C  0.78804205  0.37017052  0.20338854     0.05500
C404        C  0.77168861  0.39761725  0.19811077    -0.03000
Br405      Br  0.79403752  0.43358205  0.19449258    -0.02700
H406        H  0.72674148  0.42130249  0.19812203     0.09400
H407        H  0.78246259  0.32321110  0.20848766     0.07500
Br408      Br  0.71658180  0.31051295  0.21274828    -0.03200
C409        C  0.66730591  0.22318989  0.26270026    -0.09800
C410        C  0.67003161  0.21607793  0.29374336     0.06400
C411        C  0.67530318  0.23880144  0.31517081    -0.03600
C412        C  0.67502369  0.26845293  0.30560290    -0.08000
C413        C  0.66772949  0.27594532  0.27506782     0.05500
C414        C  0.66555707  0.25279745  0.25325537    -0.03000
Br415      Br  0.65854681  0.25954438  0.21055278    -0.02700
H416        H  0.66312936  0.20578514  0.24602949     0.09400
H417        H  0.67739010  0.28578140  0.32269085     0.07500
Br418      Br  0.68007399  0.23041866  0.35793179    -0.03200
C419        C  0.64718896  0.48897727  0.25345700    -0.09800
C420        C  0.65276835  0.46719691  0.27609715     0.06400
C421        C  0.66040912  0.47684111  0.30593531    -0.03600
C422        C  0.66054435  0.00720266  0.31964999    -0.08000
C423        C  0.65651248  0.02870661  0.29639182     0.05500
C424        C  0.65588627  0.01853727  0.26569182    -0.03000
Br425      Br  0.65221725  0.04464139  0.23115098    -0.02700
H426        H  0.64228614  0.48218258  0.23012281     0.09400
H427        H  0.66165859  0.01416760  0.34337801     0.07500
Br428      Br  0.67029593  0.44986263  0.33872574    -0.03200
C429        C  0.03770452  0.04674505  0.34310953    -0.09800
C430        C  0.05153496  0.04075212  0.37153115     0.06400
C431        C  0.07836008  0.05628608  0.38064367    -0.03600
C432        C  0.09240616  0.07558911  0.36010233    -0.08000
C433        C  0.07954951  0.07999352  0.33073183     0.05500
C434        C  0.05088359  0.06631548  0.32299139    -0.03000
Br435      Br  0.02802473  0.07225867  0.28515531    -0.02700
H436        H  0.01624740  0.03591000  0.33655625     0.09400
H437        H  0.11402657  0.08611391  0.36662409     0.07500
Br438      Br  0.09564980  0.05311363  0.42097388    -0.03200
C439        C  0.04965546  0.41101099  0.44962797    -0.09800
C440        C  0.05181517  0.44194485  0.45165929     0.06400
C441        C  0.08238551  0.45283266  0.44970561    -0.03600
C442        C  0.10453618  0.43712083  0.43170418    -0.08000
C443        C  0.09748827  0.40888558  0.41994757     0.05500
C444        C  0.07205688  0.39423754  0.43308468    -0.03000
Br445      Br  0.06466198  0.35276278  0.42710593    -0.02700
H446        H  0.03016769  0.40011523  0.45961657     0.09400
H447        H  0.12587652  0.44777583  0.42512350     0.07500
Br448      Br  0.09325363  0.48966489  0.46863078    -0.03200
C449        C  0.87712916  0.39825684  0.38379283    -0.09800
C450        C  0.89333422  0.38192842  0.36132416     0.06400
C451        C  0.92380351  0.37086105  0.36785835    -0.03600
C452        C  0.94047526  0.38214982  0.39271472    -0.08000
C453        C  0.92627488  0.40363517  0.41210337     0.05500
C454        C  0.89317158  0.40833675  0.40978903    -0.03000
Br455      Br  0.86896980  0.42898419  0.44059280    -0.02700
H456        H  0.85268993  0.40496806  0.38010531     0.09400
H457        H  0.96519298  0.37604635  0.39482327     0.07500
Br458      Br  0.94380718  0.34176485  0.34218556    -0.03200
C459        C  0.91544713  0.03635355  0.37431206    -0.09800
C460        C  0.91433118  0.06629141  0.38253644     0.06400
C461        C  0.92351759  0.07409548  0.41265787    -0.03600
C462        C  0.93647039  0.05211657  0.43269984    -0.08000
C463        C  0.94141616  0.02236707  0.42288164     0.05500
C464        C  0.92970288  0.01482966  0.39296389    -0.03000
Br465      Br  0.94945442  0.47976745  0.36561789    -0.02700
H466        H  0.90789567  0.02992727  0.35150490     0.09400
H467        H  0.94586856  0.05904706  0.45459680     0.07500
Br468      Br  0.92270767  0.11469675  0.42613041    -0.03200
C469        C  0.59855462  0.34819321  0.40730629    -0.09800
C470        C  0.59447030  0.31730488  0.40896355     0.06400
C471        C  0.60404693  0.29895436  0.38424809    -0.03600
C472        C  0.61795366  0.31148387  0.35931656    -0.08000
C473        C  0.61926014  0.34239469  0.35617768     0.05500
C474        C  0.61030396  0.36098035  0.38074344    -0.03000
Br475      Br  0.60993572  0.40342724  0.37777528    -0.02700
H476        H  0.59064183  0.36244839  0.42592897     0.09400
H477        H  0.62424791  0.29693444  0.34035982     0.07500
Br478      Br  0.59297023  0.25803728  0.37878699    -0.03200
C479        C  0.46756733  0.17621380  0.33262655    -0.09800
C480        C  0.43520287  0.17330254  0.33834981     0.06400
C481        C  0.42136004  0.18977468  0.36247980    -0.03600
C482        C  0.43946811  0.20985190  0.37894752    -0.08000
C483        C  0.47092037  0.21438735  0.37113827     0.05500
C484        C  0.48481998  0.19750007  0.34765784    -0.03000
Br485      Br  0.52598619  0.20546555  0.33288114    -0.02700
H486        H  0.47879985  0.16408552  0.31400489     0.09400
H487        H  0.42891339  0.22215430  0.39777094     0.07500
Br488      Br  0.37777800  0.18763006  0.37272776    -0.03200
C489        C  0.42015673  0.31717936  0.43020881    -0.09800
C490        C  0.42949678  0.34527988  0.42070682     0.06400
C491        C  0.45700592  0.35657264  0.43418862    -0.03600
C492        C  0.47745463  0.33766748  0.45129310    -0.08000
C493        C  0.47160991  0.30720330  0.45403278     0.05500
C494        C  0.44030583  0.29866112  0.44788810    -0.03000
Br495      Br  0.42506349  0.26045824  0.45885365    -0.02700
H496        H  0.39809547  0.30863725  0.42191658     0.09400
H497        H  0.49881146  0.34656060  0.46058362     0.07500
Br498      Br  0.46983686  0.39627391  0.42732940    -0.03200
C499        C  0.60982934  0.18744083  0.43053399    -0.09800
C500        C  0.59168105  0.16547788  0.41645706     0.06400
C501        C  0.56177353  0.16041990  0.42865936    -0.03600
C502        C  0.54826569  0.18113951  0.44940381    -0.08000
C503        C  0.56348460  0.20785259  0.45634600     0.05500
C504        C  0.59630368  0.20725173  0.45217659    -0.03000
Br505      Br  0.62348675  0.22572294  0.48145540    -0.02700
H506        H  0.63438039  0.18919580  0.42467966     0.09400
H507        H  0.52362688  0.17928052  0.45490334     0.07500
Br508      Br  0.53570450  0.12984296  0.41269461    -0.03200
C509        C  0.05783878  0.05583319  0.12242553    -0.09800
C510        C  0.02659130  0.06144205  0.13251276     0.06400
C511        C  0.02218380  0.08388482  0.15535489    -0.03600
C512        C  0.04720591  0.10087369  0.16513428    -0.08000
C513        C  0.07823348  0.09230846  0.15849150     0.05500
C514        C  0.08357078  0.06964514  0.13665844    -0.03000
Br515      Br  0.12535463  0.05491818  0.12802984    -0.02700
H516        H  0.06287191  0.03756947  0.10684765     0.09400
H517        H  0.04286334  0.11746280  0.18269067     0.07500
Br518      Br  0.98707106  0.08643289  0.18275321    -0.03200
C519        C  0.06586568  0.47905371  0.22193478    -0.09800
C520        C  0.05264670  0.46566542  0.19637603     0.06400
C521        C  0.05955191  0.43514035  0.19062213    -0.03600
C522        C  0.07806512  0.41829618  0.21162709    -0.08000
C523        C  0.08947813  0.43148453  0.23853338     0.05500
C524        C  0.08373663  0.46263776  0.24297400    -0.03000
Br525      Br  0.09806756  0.48549631  0.27750032    -0.02700
H526        H  0.06083361  0.50245063  0.22635253     0.09400
H527        H  0.08238794  0.39475702  0.20755260     0.07500
Br528      Br  0.04484573  0.41572389  0.15432275    -0.03200
C529        C  0.89387684  0.10902961  0.14938633    -0.09800
C530        C  0.89062778  0.07869683  0.14182931     0.06400
C531        C  0.86799847  0.06335341  0.15880885    -0.03600
C532        C  0.86124705  0.07285602  0.18835615    -0.08000
C533        C  0.86976744  0.10086143  0.19850257     0.05500
C534        C  0.88108741  0.12073261  0.17673805    -0.03000
Br535      Br  0.87747240  0.16300954  0.18233400    -0.02700
H536        H  0.90734811  0.12315377  0.13491357     0.09400
H537        H  0.84911389  0.05836601  0.20341298     0.07500
Br538      Br  0.84265229  0.03197503  0.14312792    -0.03200
C539        C  0.93995861  0.44466510  0.13172703    -0.09800
C540        C  0.93811799  0.47477291  0.14094087     0.06400
C541        C  0.92082625  0.48197735  0.16818615    -0.03600
C542        C  0.90708612  0.45998733  0.18483971    -0.08000
C543        C  0.91275256  0.43012996  0.17813799     0.05500
C544        C  0.92799499  0.42225158  0.15053658    -0.03000
Br545      Br  0.93657359  0.38149835  0.13979084    -0.02700
H546        H  0.95383413  0.43822202  0.11202035     0.09000
H547        H  0.89513117  0.46617530  0.20586048     0.07500
Br548      Br  0.92268078  0.01597929  0.19408187    -0.03200
C549        C  0.60867807  0.14465967  0.20098792    -0.09800
C550        C  0.59023230  0.14868295  0.22736294     0.06400
C551        C  0.55826392  0.15794315  0.22395811    -0.03600
C552        C  0.54600832  0.16368738  0.19498389    -0.08000
C553        C  0.56503568  0.16199421  0.16890286     0.05500
C554        C  0.59644900  0.15175319  0.17199220    -0.03000
Br555      Br  0.62360423  0.14854964  0.13741423    -0.02700
H556        H  0.63319838  0.13751489  0.20300624     0.09400
H557        H  0.52200391  0.17240342  0.19327931     0.07500
Br558      Br  0.52979155  0.16592090  0.25714749    -0.03200
C559        C  0.43082203  0.30975434  0.19656943    -0.09800
C560        C  0.46070126  0.29799047  0.20488662     0.06400
C561        C  0.47788451  0.31182201  0.22839111    -0.03600
C562        C  0.46462206  0.33594781  0.24388114    -0.08000
C563        C  0.43337252  0.34562273  0.23816439     0.05500
C564        C  0.41705348  0.33358007  0.21301098    -0.03000
Br565      Br  0.37554775  0.34745353  0.20134497    -0.02700
H566        H  0.41816504  0.30024236  0.17746858     0.09400
H567        H  0.47755638  0.34486919  0.26317165     0.07500
Br568      Br  0.51811543  0.29671948  0.24312830    -0.03200
C569        C  0.56311407  0.30246487  0.12747946    -0.09800
C570        C  0.56058546  0.27338458  0.13948680     0.06400
C571        C  0.57615306  0.26766717  0.16827202    -0.03600
C572        C  0.58992846  0.29051715  0.18443163    -0.08000
C573        C  0.58873835  0.31972274  0.17428726     0.05500
C574        C  0.57658867  0.32558548  0.14482938    -0.03000
Br575      Br  0.57338359  0.36537447  0.12963668    -0.02700
H576        H  0.55115506  0.30859462  0.10647671     0.09400
H577        H  0.59816914  0.28608658  0.20750820     0.07500
Br578      Br  0.57086658  0.23387414  0.19442716    -0.03200
C579        C  0.45380096  0.16965704  0.11868935    -0.09800
C580        C  0.45096122  0.20085688  0.12163566     0.06400
C581        C  0.42133493  0.21217501  0.13115116    -0.03600
C582        C  0.40297092  0.19434411  0.14961078    -0.08000
C583        C  0.41294006  0.16483814  0.15636065     0.05500
C584        C  0.43618240  0.15149075  0.13756484    -0.03000
Br585      Br  0.44821545  0.11012353  0.14003332    -0.02700
H586        H  0.47235916  0.15948111  0.10509811     0.09400
H587        H  0.38279649  0.20439728  0.16107444     0.07500
Br588      Br  0.40662713  0.25202768  0.12206345    -0.03200
C589        C  0.49684475  0.27684827  0.64161245     0.29400
C590        C  0.45482922  0.23285679  0.63034965     0.29400
C591        C  0.46285831  0.28710028  0.63496113    -0.06800
C592        C  0.50398155  0.25788593  0.61290383    -0.07600
C593        C  0.49500918  0.25284108  0.66574281    -0.07500
C594        C  0.44076660  0.26533821  0.63043520    -0.06800
C595        C  0.48227686  0.23495547  0.60756506    -0.07600
C596        C  0.47250751  0.23124951  0.66123268    -0.07500
C597        C  0.41187021  0.28044389  0.63408847    -0.32900
N598        N  0.41615096  0.31024978  0.63818298     0.13600
C599        C  0.44757858  0.31401942  0.63781174    -0.32900
H600        H  0.45921511  0.33392705  0.64465597     0.15600
C601        C  0.48248429  0.22861709  0.57692100    -0.31800
N602        N  0.50296489  0.24633383  0.56345850     0.12400
C603        C  0.51499156  0.26524120  0.58437447    -0.31800
C604        C  0.48442003  0.20643615  0.67620365    -0.32100
N605        N  0.51376345  0.21094560  0.68610869     0.12900
H606        H  0.47315188  0.18525599  0.67892671     0.15500
C607        C  0.52047542  0.23928833  0.68056300    -0.32100
H608        H  0.54317452  0.24870073  0.68464450     0.15500
H609        H  0.52804571  0.28464118  0.57873164     0.15500
H610        H  0.38987154  0.27018360  0.63760138     0.15600
H611        H  0.46613823  0.21481521  0.56468887     0.15500
C612        C  0.95929266  0.48540282  0.62633981     0.29400
C613        C  0.00197742  0.03594824  0.62805493     0.29400
C614        C  0.98286080  0.48644640  0.65290251    -0.06800
C615        C  0.98149867  0.48328156  0.59814887    -0.07600
C616        C  0.94579972  0.02498280  0.62519096    -0.07500
C617        C  0.00433067  0.50856245  0.65214316    -0.06800
C618        C  0.00336073  0.01466354  0.59964428    -0.07600
C619        C  0.96717109  0.04702986  0.62660342    -0.07500
C620        C  0.03073338  0.49790966  0.66801414    -0.32900
N621        N  0.02561868  0.47039118  0.67883068     0.13600
C622        C  0.99651072  0.46309941  0.66952052    -0.32900
H623        H  0.98631590  0.44176543  0.67333795     0.15600
C624        C  0.00837060  0.02146240  0.56935645    -0.31800
N625        N  0.99016435  0.49624419  0.54954774     0.12400
C626        C  0.97365873  0.47811406  0.56757905    -0.31800
C627        C  0.94945461  0.07362783  0.62726006    -0.32100
N628        N  0.91801312  0.06773297  0.62662989     0.12900
H629        H  0.95894701  0.09529539  0.63143613     0.15500
C630        C  0.91648696  0.03789167  0.62235091    -0.32100
H631        H  0.89570832  0.02516139  0.62119990     0.15500
H632        H  0.95541142  0.46384513  0.55928177     0.15500
H633        H  0.05307151  0.50868591  0.66973894     0.15600
H634        H  0.02231272  0.03930897  0.56101611     0.15500
C635        C  0.54112583  0.23121489  0.95324793     0.29400
C636        C  0.49974146  0.27842847  0.93964722     0.29400
C637        C  0.51818896  0.22685944  0.92611387    -0.06800
C638        C  0.51912168  0.23809440  0.48424277    -0.07600
C639        C  0.55598446  0.26148514  0.94560777    -0.07500
C640        C  0.49793981  0.25107010  0.91900990    -0.06800
C641        C  0.49701583  0.26225444  0.48389495    -0.07600
C642        C  0.53485622  0.28504148  0.93995096    -0.07500
C643        C  0.47172825  0.24031424  0.90431572    -0.32900
N644        N  0.47483407  0.21055910  0.90253780     0.13600
C645        C  0.50179437  0.20228308  0.91697923    -0.32900
H646        H  0.50737148  0.17943827  0.92196781     0.15600
C647        C  0.48969520  0.26839457  0.51395036    -0.31800
N648        N  0.50561612  0.24855832  0.53176233     0.12400
C649        C  0.52385734  0.23038226  0.51435508    -0.31800
C650        C  0.55173250  0.30954004  0.93314063    -0.32100
N651        N  0.58271658  0.30171740  0.93175742     0.12900
H652        H  0.54165572  0.33104313  0.92681425     0.15500
C653        C  0.58545414  0.27263591  0.94013763    -0.32100
H654        H  0.60717061  0.26027743  0.94122092     0.15500
H655        H  0.54134379  0.21453710  0.52319354     0.15500
H656        H  0.45088848  0.25311763  0.89735296     0.15600
H657        H  0.47566764  0.28715140  0.52239396     0.15500
C658        C  0.02131175  0.46209221  0.95104265     0.29400
C659        C  0.97454478  0.99723703  0.94040430     0.29400
C660        C  0.98825612  0.44919846  0.94424865    -0.06800
C661        C  0.01327277  0.48530631  0.97624295    -0.07600
C662        C  0.02975751  0.98087734  0.92822200    -0.07500
C663        C  0.96422564  0.47020240  0.93875227    -0.06800
C664        C  0.98681061  0.99634931  0.97414456    -0.07600
C665        C  0.00530650  0.00140723  0.92393804    -0.07500
C666        C  0.93715206  0.45575531  0.93212135    -0.32900
N667        N  0.94367081  0.42613837  0.93111178     0.13600
C668        C  0.97472525  0.42192934  0.93848190    -0.32900
H669        H  0.98679909  0.40065631  0.93645375     0.15600
C670        C  0.97384134  0.01493120  0.49792180    -0.31800
N671        N  0.99330853  0.00211502  0.51931088     0.12400
C672        C  0.01594150  0.47881269  0.50352835    -0.31800
C673        C  0.01665322  0.02553154  0.90939018    -0.32100
N674        N  0.04703190  0.01996981  0.90234834     0.12900
H675        H  0.00346002  0.04583159  0.90380577     0.15500
C676        C  0.05542716  0.99254742  0.91315383    -0.32100
H677        H  0.07842250  0.98217784  0.90995812     0.15500
H678        H  0.03161280  0.46276532  0.51477347     0.15500
H679        H  0.91558942  0.46654527  0.92394344     0.15600
H680        H  0.95210633  0.02705180  0.50304844     0.15500
O681        O  0.68913809  0.36848682  0.75203175    -0.82400
C682        C  0.56319526  0.40550054  0.76932371     0.96900
O683        O  0.57773831  0.40904853  0.74403920    -0.71500
O684        O  0.63396440  0.43172387  0.74925932    -0.75100
Al685      Al  0.62106883  0.39636851  0.73093287     1.49000
C686        C  0.65294865  0.43776578  0.77043640     0.92200
O687        O  0.64537474  0.38111095  0.82524298    -0.81400
O688        O  0.62050748  0.31806434  0.76775424    -0.74900
Al689      Al  0.66391733  0.37468692  0.78597018     1.90100
O690        O  0.60976262  0.34836699  0.81903847    -0.74000
O691        O  0.57446609  0.34876766  0.74059207    -0.73800
O692        O  0.57318641  0.38647869  0.78857884    -0.79500
O693        O  0.60640825  0.36358108  0.70611000    -0.77700
O694        O  0.62788622  0.37480095  0.76471387    -1.13800
O695        O  0.66299865  0.38799626  0.71323024    -0.73000
C696        C  0.68779978  0.37550975  0.72441545     0.97700
C697        C  0.62730208  0.36275609  0.83632066     0.94100
Al698      Al  0.59725688  0.35256477  0.77778746     1.55600
O699        O  0.66765193  0.41728304  0.78499635    -0.77600
C700        C  0.58217371  0.34986133  0.71300272     0.98300
C701        C  0.64770320  0.31138793  0.77820277     0.93100
O702        O  0.66528915  0.33122190  0.78967535    -0.83000
O703        O  0.68831481  0.11893680  0.82166671    -0.82400
C704        C  0.56555655  0.10034122  0.83107386     0.96900
O705        O  0.58985760  0.08380590  0.83690836    -0.71500
O706        O  0.65160647  0.06887378  0.83245828    -0.75100
Al707      Al  0.62881176  0.09879934  0.85415783     1.49000
C708        C  0.65149049  0.06276848  0.80458405     0.92200
O709        O  0.61941812  0.13328382  0.76348412    -0.81400
O710        O  0.62673093  0.18789326  0.82351846    -0.74900
Al711      Al  0.65244958  0.12549642  0.79406561     1.90100
O712        O  0.58513871  0.15698341  0.79235300    -0.74000
O713        O  0.61032140  0.16365733  0.87273053    -0.73800
O714        O  0.56577183  0.12807570  0.83809057    -0.79500
O715        O  0.60606819  0.11883063  0.88808591    -0.77700
O716        O  0.62718403  0.12751944  0.82610247    -1.13800
O717        O  0.66859271  0.11318784  0.86875474    -0.73000
C718        C  0.69166662  0.11802718  0.85090067     0.97700
C719        C  0.59330353  0.14743744  0.76682843     0.94100
Al720      Al  0.59927110  0.15667479  0.83152794     1.55600
O721        O  0.64689809  0.08366413  0.78595488    -0.77600
C722        C  0.60501229  0.14630092  0.89391007     0.98300
C723        C  0.64992181  0.18938647  0.80603686     0.93100
O724        O  0.66235878  0.16642307  0.79410802    -0.83000
O725        O  0.31274565  0.37666016  0.82087597    -0.82400
C726        C  0.43821388  0.40545789  0.80282825     0.96900
O727        O  0.42411624  0.41012655  0.82829807    -0.71500
O728        O  0.36884305  0.43732137  0.82385577    -0.75100
Al729      Al  0.38085464  0.40095640  0.84145181     1.49000
C730        C  0.34839875  0.44524473  0.80445907     0.92200
O731        O  0.35519791  0.38966654  0.74796685    -0.81400
O732        O  0.37867772  0.32198181  0.80279169    -0.74900
Al733      Al  0.33686860  0.38291966  0.78681435     1.90100
O734        O  0.38980595  0.35323953  0.75181261    -0.74000
O735        O  0.42547440  0.34832726  0.83122609    -0.73800
O736        O  0.42825789  0.38646633  0.78395408    -0.79500
O737        O  0.39472287  0.36744280  0.86576264    -0.77700
O738        O  0.37320668  0.37983997  0.80753036    -1.13800
O739        O  0.33911100  0.39590304  0.85918927    -0.73000
C740        C  0.31453168  0.38420215  0.84838306     0.97700
C741        C  0.37236126  0.36997671  0.73558044     0.94100
Al742      Al  0.40296555  0.35481717  0.79376084     1.55600
O743        O  0.33266310  0.42602054  0.79016405    -0.77600
C744        C  0.41851030  0.35155747  0.85891286     0.98300
C745        C  0.35271540  0.31789156  0.78932670     0.93100
O746        O  0.33530369  0.33973155  0.77986989    -0.83000
O747        O  0.32443278  0.13357907  0.74887620    -0.82400
C748        C  0.45273270  0.10273345  0.76118488     0.96900
O749        O  0.43575007  0.09051438  0.74044580    -0.71500
O750        O  0.38336078  0.06864119  0.75899363    -0.75100
Al751      Al  0.38985906  0.09791459  0.72997192     1.49000
C752        C  0.36107587  0.06685798  0.77723998     0.92200
O753        O  0.37924036  0.13178903  0.81673448    -0.81400
O754        O  0.38453313  0.18599392  0.74492331    -0.74900
Al755      Al  0.35295261  0.13217061  0.78109176     1.90100
O756        O  0.40946404  0.16610066  0.79862196    -0.74000
O757        O  0.42729138  0.15380511  0.71509428    -0.73800
O758        O  0.44592668  0.12877233  0.77014569    -0.79500
O759        O  0.39558123  0.12217323  0.69512404    -0.77700
O760        O  0.38568184  0.12835072  0.75593292    -1.13800
O761        O  0.34501474  0.09996085  0.71731088    -0.73000
C762        C  0.32231845  0.11752159  0.72539414     0.97700
C763        C  0.39922270  0.15161682  0.82071422     0.94100
Al764      Al  0.41445801  0.15613209  0.75688724     1.55600
O765        O  0.34665817  0.09005110  0.78676320    -0.77600
C766        C  0.41325821  0.14354396  0.69213473     0.98300
C767        C  0.36223185  0.19410170  0.76225568     0.93100
O768        O  0.35056924  0.17544581  0.78027143    -0.83000
O769        O  0.18776281  0.35973180  0.82150925    -0.82400
C770        C  0.06414451  0.36288607  0.82784795     0.96900
O771        O  0.08390163  0.34120737  0.83325505    -0.71500
O772        O  0.14307238  0.31453665  0.83149725    -0.75100
Al773      Al  0.12472688  0.34748456  0.85228615     1.49000
C774        C  0.14403166  0.30815919  0.80380098     0.92200
O775        O  0.12074469  0.38379806  0.76381560    -0.81400
O776        O  0.14459327  0.43496730  0.82903560    -0.74900
Al777      Al  0.15320489  0.37083501  0.79362793     1.90100
O778        O  0.09728489  0.41709119  0.79339437    -0.74000
O779        O  0.11872796  0.41187000  0.87640963    -0.73800
O780        O  0.06992579  0.38938817  0.83704331    -0.79500
O781        O  0.10406718  0.36790482  0.88560108    -0.77700
O782        O  0.12929947  0.37667556  0.82596129    -1.13800
O783        O  0.16602948  0.35569710  0.86824926    -0.73000
C784        C  0.18991623  0.35934072  0.85094291     0.97700
C785        C  0.10211250  0.40637035  0.76732855     0.94100
Al786      Al  0.10913469  0.41052801  0.83356683     1.55600
O787        O  0.14195106  0.32941740  0.78509081    -0.77600
C788        C  0.10682494  0.39414282  0.89445812     0.98300
C789        C  0.16405533  0.43410964  0.80740691     0.93100
O790        O  0.16925608  0.41016138  0.79291898    -0.83000
O791        O  0.19257751  0.12408900  0.75358786    -0.82400
C792        C  0.06873106  0.13642735  0.75160849     0.96900
O793        O  0.09014281  0.15491576  0.74582869    -0.71500
O794        O  0.15080881  0.17342533  0.74586569    -0.75100
Al795      Al  0.12882771  0.14312687  0.72559785     1.49000
C796        C  0.15090565  0.17973103  0.77361549     0.92200
O797        O  0.12978646  0.10658988  0.81448482    -0.81400
O798        O  0.14379577  0.05379993  0.74767005    -0.74900
Al799      Al  0.15980277  0.11603533  0.78295855     1.90100
O800        O  0.10172625  0.07640025  0.78679535    -0.74000
O801        O  0.11495032  0.07989235  0.70255433    -0.73800
O802        O  0.07257556  0.10847646  0.74598070    -0.79500
O803        O  0.10353558  0.12556103  0.69371563    -0.77700
O804        O  0.13315618  0.11329025  0.75195549    -1.13800
O805        O  0.16830340  0.13038805  0.70769933    -0.73000
C806        C  0.19325460  0.12568329  0.72419417     0.97700
C807        C  0.10865808  0.08738760  0.81220565     0.94100
Al808      Al  0.11002407  0.08221896  0.74600318     1.55600
O809        O  0.14985314  0.15837356  0.79216156    -0.77600
C810        C  0.10155649  0.09892333  0.68591475     0.98300
C811        C  0.16560331  0.05180869  0.76743973     0.93100
O812        O  0.17394290  0.07466684  0.78205026    -0.83000
O813        O  0.81303613  0.37530574  0.75029905    -0.82400
C814        C  0.94558756  0.36288514  0.76283626     0.96900
O815        O  0.93036716  0.35006328  0.74131413    -0.71500
O816        O  0.88301457  0.31706968  0.75692643    -0.75100
Al817      Al  0.88399667  0.35031807  0.73170132     1.49000
C818        C  0.85989016  0.30850250  0.77162320     0.92200
O819        O  0.86325910  0.36464740  0.82084952    -0.81400
O820        O  0.86286473  0.43320803  0.76274883    -0.74900
Al821      Al  0.83917516  0.37015923  0.78433106     1.90100
O822        O  0.88991757  0.40514956  0.81417809    -0.74000
O823        O  0.90924142  0.41334089  0.72943521    -0.73800
O824        O  0.93234062  0.38276112  0.77878178    -0.79500
O825        O  0.88684271  0.37982093  0.70114441    -0.77700
O826        O  0.87347366  0.37536092  0.76194230    -1.13800
O827        O  0.83934989  0.34678394  0.71734527    -0.73000
C828        C  0.81423248  0.36134167  0.72529546     0.97700
C829        C  0.88109827  0.38425908  0.83112669     0.94100
Al830      Al  0.89664882  0.40610740  0.77046670     1.55600
O831        O  0.83896824  0.32719216  0.78032770    -0.77600
C832        C  0.90109125  0.40364206  0.70345616     0.98300
C833        C  0.83902730  0.43512347  0.77941931     0.93100
O834        O  0.83013991  0.41241010  0.79358200    -0.83000
O835        O  0.81603536  0.11725100  0.82033619    -0.82400
C836        C  0.94517412  0.13074290  0.79901511     0.96900
O837        O  0.93227462  0.13930104  0.82408808    -0.71500
O838        O  0.88200310  0.17339959  0.81398897    -0.75100
Al839      Al  0.88700858  0.13838354  0.83654581     1.49000
C840        C  0.85947313  0.18248896  0.79736338     0.92200
O841        O  0.85796784  0.12781127  0.74667982    -0.81400
O842        O  0.87064076  0.05842622  0.80229296    -0.74900
Al843      Al  0.83885185  0.12214029  0.78517351     1.90100
O844        O  0.88776797  0.08737239  0.74993804    -0.74000
O845        O  0.91944234  0.07749887  0.83190985    -0.73800
O846        O  0.93228385  0.11152064  0.78257323    -0.79500
O847        O  0.89365180  0.10567225  0.86426243    -0.77700
O848        O  0.87547660  0.11582714  0.80492066    -1.13800
O849        O  0.84411319  0.14207354  0.85377294    -0.73000
C850        C  0.81877650  0.12947218  0.84597320     0.97700
C851        C  0.87385757  0.10735734  0.73396470     0.94100
Al852      Al  0.90053966  0.08617651  0.79271603     1.55600
O853        O  0.83818862  0.16509041  0.78907611    -0.77600
C854        C  0.91083635  0.08296569  0.85904130     0.98300
C855        C  0.84368366  0.05705544  0.79027195     0.93100
O856        O  0.83100306  0.07979265  0.77735792    -0.83000
C857        C  0.88613615  0.25882455  0.77630794    -0.09800
C858        C  0.85809399  0.27619651  0.77795734     0.06400
C859        C  0.82962208  0.26177049  0.78335736    -0.03600
C860        C  0.83010731  0.23094280  0.78852646    -0.08000
C861        C  0.85851027  0.21407423  0.78817550     0.05500
C862        C  0.88650393  0.22823905  0.78089168    -0.03000
Br863      Br  0.92587980  0.20691094  0.77485621    -0.02700
H864        H  0.90817460  0.26903428  0.77119051     0.09400
H865        H  0.80829425  0.22022393  0.79330032     0.07500
Br866      Br  0.78928259  0.28228336  0.78240070    -0.03200
C867        C  0.81508452  0.48182278  0.75846651    -0.09800
C868        C  0.82459214  0.46508822  0.78417469     0.06400
C869        C  0.82920625  0.48006911  0.81209402    -0.03600
C870        C  0.83616722  0.00964366  0.81624093    -0.08000
C871        C  0.82914676  0.02757774  0.79072454     0.05500
C872        C  0.81683002  0.01405564  0.76422422    -0.03000
Br873      Br  0.80109701  0.03652307  0.73005313    -0.02700
H874        H  0.81068777  0.47074766  0.73694190     0.09400
H875        H  0.84499405  0.01965249  0.83711624     0.07500
Br876      Br  0.83959078  0.45948819  0.84908880    -0.03200
C877        C  0.00147020  0.14719838  0.80752622    -0.09800
C878        C  0.97597301  0.14170685  0.78769036     0.06400
C879        C  0.98177909  0.14232734  0.75580876    -0.03600
C880        C  0.01203217  0.14497975  0.74452459    -0.08000
C881        C  0.03781904  0.14651928  0.76411650     0.05500
C882        C  0.03230055  0.14953991  0.79589897    -0.03000
Br883      Br  0.06645417  0.15409383  0.82422733    -0.02700
H884        H  0.99799025  0.14726750  0.83201675     0.09400
H885        H  0.01567036  0.14356907  0.72009310     0.07500
Br886      Br  0.95024657  0.13721132  0.72541408    -0.03200
C887        C  0.02541568  0.38359165  0.78989797    -0.09800
C888        C  0.03537042  0.35913545  0.80787735     0.06400
C889        C  0.01839508  0.33269582  0.80473242    -0.03600
C890        C  0.99084566  0.33220305  0.78600970    -0.08000
C891        C  0.97982971  0.35773390  0.77006259     0.05500
C892        C  0.99868666  0.38293606  0.77106165    -0.03000
Br893      Br  0.98727913  0.41859838  0.74901765    -0.02700
H894        H  0.03811843  0.40398925  0.79084643     0.09400
H895        H  0.97648798  0.31278591  0.78628001     0.07500
Br896      Br  0.02936565  0.29802476  0.82827360    -0.03200
C897        C  0.15237888  0.23386107  0.75898850    -0.09800
C898        C  0.15127692  0.21235881  0.78252140     0.06400
C899        C  0.14904688  0.22312433  0.81283504    -0.03600
C900        C  0.14702233  0.25400171  0.81871303    -0.08000
C901        C  0.14720221  0.27549875  0.79511190     0.05500
C902        C  0.15046656  0.26474608  0.76487844    -0.03000
Br903      Br  0.15269287  0.29070943  0.73038720    -0.02700
H904        H  0.15443493  0.22668784  0.73539358     0.09400
H905        H  0.14499858  0.26116232  0.84231415     0.07500
Br906      Br  0.14836883  0.19719864  0.84747569    -0.03200
C907        C  0.17876972  0.48673049  0.81659811    -0.09800
C908        C  0.17698252  0.46255313  0.79629109     0.06400
C909        C  0.18007772  0.46824300  0.76458994    -0.03600
C910        C  0.17689368  0.99888073  0.75330813    -0.08000
C911        C  0.17825778  0.02146538  0.77556088     0.05500
C912        C  0.18351542  0.01295497  0.80638056    -0.03000
Br913      Br  0.18868797  0.04115946  0.83895805    -0.02700
H914        H  0.17743766  0.48297092  0.84099325     0.09400
H915        H  0.17328156  0.00476303  0.72950644     0.07500
Br916      Br  0.18200831  0.43742484  0.73403068    -0.03200
C917        C  0.24202507  0.14864908  0.70771488    -0.09800
C918        C  0.22468390  0.12292278  0.71014047     0.06400
C919        C  0.24063224  0.09498997  0.70794138    -0.03600
C920        C  0.27371599  0.09312615  0.70777190    -0.08000
C921        C  0.29117688  0.11896978  0.70979458     0.05500
C922        C  0.27496971  0.14686791  0.70722099    -0.03000
Br923      Br  0.29691390  0.18350707  0.70754561    -0.02700
H924        H  0.23013729  0.17028447  0.70930069     0.09400
H925        H  0.28556607  0.07153298  0.70966307     0.07500
Br926      Br  0.21820807  0.05884482  0.70854048    -0.03200
C927        C  0.23010425  0.39552945  0.86449726    -0.09800
C928        C  0.22111962  0.36578144  0.86426025     0.06400
C929        C  0.24436591  0.34323171  0.86870707    -0.03600
C930        C  0.27630325  0.35044532  0.86994071    -0.08000
C931        C  0.28555733  0.37993075  0.86599522     0.05500
C932        C  0.26197605  0.40269137  0.86529566    -0.03000
Br933      Br  0.27226584  0.44333409  0.85883727    -0.02700
H934        H  0.21245523  0.41312017  0.86072315     0.09400
H935        H  0.29404456  0.33262880  0.87008354     0.07500
Br936      Br  0.23359039  0.30221249  0.86876598    -0.03200
C937        C  0.36215042  0.27773195  0.75259750    -0.09800
C938        C  0.34690153  0.28736969  0.77922388     0.06400
C939        C  0.33274198  0.26646614  0.79778122    -0.03600
C940        C  0.33532920  0.23614729  0.79021247    -0.08000
C941        C  0.35266657  0.22616027  0.76455864     0.05500
C942        C  0.36470152  0.24770371  0.74476866    -0.03000
Br943      Br  0.38647392  0.23857959  0.70748101    -0.02700
H944        H  0.37383160  0.29364819  0.73854162     0.09400
H945        H  0.32559300  0.22028593  0.80570057     0.07500
Br946      Br  0.31237835  0.27806953  0.83493831    -0.03200
C947        C  0.34179795  0.48622095  0.76673770    -0.09800
C948        C  0.34510763  0.47753051  0.79734374     0.06400
C949        C  0.35034607  0.49977550  0.81982253    -0.03600
C950        C  0.35249013  0.02782172  0.81629772    -0.08000
C951        C  0.35145822  0.03680308  0.78571540     0.05500
C952        C  0.34466440  0.01565422  0.76271677    -0.03000
Br953      Br  0.34086791  0.02589040  0.72027517    -0.02700
H954        H  0.33792405  0.46964085  0.74914590     0.09400
H955        H  0.35735039  0.04385186  0.83417327     0.07500
Br956      Br  0.35367372  0.49094137  0.86266537    -0.03200
C957        C  0.51014114  0.08478695  0.76356848    -0.09800
C958        C  0.48049647  0.08763799  0.77734711     0.06400
C959        C  0.47983575  0.08488066  0.80957172    -0.03600
C960        C  0.50764161  0.08730800  0.82748563    -0.08000
C961        C  0.53733515  0.08850123  0.81370782     0.05500
C962        C  0.53817286  0.08345774  0.78154987    -0.03000
Br963      Br  0.57683008  0.07585874  0.76072160    -0.02700
H964        H  0.51171991  0.08544125  0.73888587     0.09400
H965        H  0.50592584  0.08880924  0.85213295     0.07500
Br966      Br  0.44092049  0.07720130  0.82946772    -0.03200
C967        C  0.73639724  0.15096003  0.86067189    -0.09800
C968        C  0.72378802  0.12270050  0.86330227     0.06400
C969        C  0.74428868  0.09851566  0.87050125    -0.03600
C970        C  0.77702080  0.10222699  0.87093257    -0.08000
C971        C  0.78980828  0.12996549  0.86442605     0.05500
C972        C  0.76903286  0.15485711  0.86190068    -0.03000
Br973      Br  0.78448157  0.19362664  0.85424501    -0.02700
H974        H  0.72092585  0.16957451  0.85495532     0.09400
H975        H  0.79251615  0.08265248  0.87244585     0.07500
Br976      Br  0.72880081  0.05930414  0.87507152    -0.03200
C977        C  0.52388771  0.42435862  0.80711006    -0.09800
C978        C  0.53201189  0.42005005  0.77612607     0.06400
C979        C  0.50760008  0.42094750  0.75408686    -0.03600
C980        C  0.47620695  0.42056984  0.76355046    -0.08000
C981        C  0.46839067  0.41941866  0.79479848     0.05500
C982        C  0.49238943  0.42434422  0.81657047    -0.03000
Br983      Br  0.48440067  0.42707673  0.85963432    -0.02700
H984        H  0.54230491  0.42465607  0.82443229     0.09400
H985        H  0.45799411  0.41806936  0.74627586     0.07500
Br986      Br  0.51541019  0.41763033  0.71104790    -0.03200
C987        C  0.73651284  0.39360667  0.70079553    -0.09800
C988        C  0.71742383  0.36959959  0.70711700     0.06400
C989        C  0.73197668  0.34086714  0.70844682    -0.03600
C990        C  0.76503238  0.33720530  0.70896211    -0.08000
C991        C  0.78418572  0.36191714  0.70741746     0.05500
C992        C  0.76955302  0.38979062  0.70051258    -0.03000
Br993      Br  0.79438709  0.42405306  0.69506233    -0.02700
H994        H  0.72611380  0.41589420  0.69969228     0.09400
H995        H  0.77554906  0.31555398  0.71425129     0.07500
Br996      Br  0.70736089  0.30646678  0.71420467    -0.03200
C997        C  0.64413574  0.22849387  0.76784722    -0.09800
C998        C  0.65844811  0.21881812  0.79516494     0.06400
C999        C  0.67516531  0.23904802  0.81310920    -0.03600
C1000       C  0.67467757  0.26916709  0.80517570    -0.08000
C1001       C  0.65691372  0.27948596  0.77988031     0.05500
C1002       C  0.64318576  0.25850756  0.76002512    -0.03000
Br1003     Br  0.62110594  0.26931762  0.72285094    -0.02700
H1004       H  0.63158086  0.21291841  0.75361096     0.09400
H1005       H  0.68608331  0.28477114  0.82022855     0.07500
Br1006     Br  0.69758805  0.22697815  0.84919668    -0.03200
C1007       C  0.65352378  0.49091592  0.75492130    -0.09800
C1008       C  0.65651126  0.46961450  0.77833076     0.06400
C1009       C  0.65852729  0.47958406  0.80883061    -0.03600
C1010       C  0.65561361  0.00908766  0.81856295    -0.08000
C1011       C  0.65535652  0.03073367  0.79527364     0.05500
C1012       C  0.65702194  0.02071397  0.76460452    -0.03000
Br1013     Br  0.65948839  0.04717600  0.73051512    -0.02700
H1014       H  0.65198884  0.48364565  0.73129892     0.09400
H1015       H  0.65450596  0.01581253  0.84235760     0.07500
Br1016     Br  0.66050187  0.45301611  0.84304176    -0.03200
C1017       C  0.04727659  0.04715524  0.85497122    -0.09800
C1018       C  0.06351556  0.03809284  0.88134436     0.06400
C1019       C  0.09382818  0.04884226  0.88713724    -0.03600
C1020       C  0.10766505  0.06753110  0.86567941    -0.08000
C1021       C  0.09157163  0.07546277  0.83847281     0.05500
C1022       C  0.06058049  0.06552496  0.83386368    -0.03000
Br1023     Br  0.03456305  0.07430861  0.79863697    -0.02700
H1024       H  0.02385062  0.03928519  0.85048175     0.09400
H1025       H  0.13146859  0.07462227  0.86955489     0.07500
Br1026     Br  0.11678885  0.03908165  0.92378820    -0.03200
C1027       C  0.04567019  0.40942009  0.95469703    -0.09800
C1028       C  0.04947283  0.44014140  0.95706610     0.06400
C1029       C  0.08060115  0.44947754  0.95428832    -0.03600
C1030       C  0.10154390  0.43271469  0.93581333    -0.08000
C1031       C  0.09248865  0.40527102  0.92344554     0.05500
C1032       C  0.06592309  0.39206831  0.93625107    -0.03000
Br1033     Br  0.05330443  0.35246859  0.92668798    -0.02700
H1034       H  0.02598809  0.39937396  0.96530404     0.09400
H1035       H  0.12353242  0.44217307  0.92921133     0.07500
Br1036     Br  0.09369868  0.48611833  0.97204334    -0.03200
C1037       C  0.87588810  0.39940127  0.88547001    -0.09800
C1038       C  0.89246332  0.38345100  0.86294746     0.06400
C1039       C  0.92330317  0.37327421  0.86933321    -0.03600
C1040       C  0.93956157  0.38475219  0.89433881    -0.08000
C1041       C  0.92473334  0.40559992  0.91401414     0.05500
C1042       C  0.89165703  0.40991666  0.91144538    -0.03000
Br1043     Br  0.86720723  0.43058960  0.94202289    -0.02700
H1044       H  0.85119235  0.40513625  0.88203095     0.09400
H1045       H  0.96440909  0.37920210  0.89647400     0.07500
Br1046     Br  0.94424882  0.34464138  0.84379325    -0.03200
C1047       C  0.92803801  0.03247018  0.87329477    -0.09800
C1048       C  0.92077698  0.06120414  0.88350416     0.06400
C1049       C  0.92583366  0.06767036  0.91499664    -0.03600
C1050       C  0.93988794  0.04579030  0.93474480    -0.08000
C1051       C  0.95008131  0.01767626  0.92338045     0.05500
C1052       C  0.94387000  0.01175303  0.89156229    -0.03000
Br1053     Br  0.95449231  0.47824320  0.86745448    -0.02700
H1054       H  0.92392413  0.02666636  0.84951387     0.09400
H1055       H  0.94529758  0.05171324  0.95818930     0.07500
Br1056     Br  0.91700255  0.10654920  0.93150454    -0.03200
C1057       C  0.59933940  0.35092991  0.91513875    -0.09800
C1058       C  0.60542168  0.31982518  0.91649994     0.06400
C1059       C  0.62882112  0.30747836  0.89670151    -0.03600
C1060       C  0.64076607  0.32492501  0.87357967    -0.08000
C1061       C  0.62896694  0.35381941  0.86846043     0.05500
C1062       C  0.60988864  0.36765269  0.89059152    -0.03000
Br1063     Br  0.59391087  0.40766397  0.88552594    -0.02700
H1064       H  0.58312216  0.36157906  0.93101448     0.09400
H1065       H  0.65601196  0.31444148  0.85669237     0.07500
Br1066     Br  0.64283906  0.26659055  0.89490426    -0.03200
C1067       C  0.44555455  0.15069433  0.85203765    -0.09800
C1068       C  0.41349604  0.15799507  0.85023158     0.06400
C1069       C  0.40081130  0.18068726  0.86908810    -0.03600
C1070       C  0.42090822  0.19681468  0.88808623    -0.08000
C1071       C  0.45361067  0.19077086  0.88784369     0.05500
C1072       C  0.46556703  0.16679338  0.87023587    -0.03000
Br1073     Br  0.50940323  0.15876147  0.86411877    -0.02700
H1074       H  0.45604685  0.13565827  0.83550001     0.09400
H1075       H  0.41129982  0.21517977  0.90153120     0.07500
Br1076     Br  0.35737899  0.19324274  0.86584058    -0.03200
C1077       C  0.42685153  0.32597748  0.90989371    -0.09800
C1078       C  0.43919483  0.33704502  0.88263756     0.06400
C1079       C  0.47141939  0.33179525  0.87701316    -0.03600
C1080       C  0.48970756  0.31455398  0.89700933    -0.08000
C1081       C  0.47832833  0.30315811  0.92473032     0.05500
C1082       C  0.44567880  0.30858724  0.93042461    -0.03000
Br1083     Br  0.42331883  0.28910835  0.96185942    -0.02700
H1084       H  0.40190091  0.32905364  0.91417986     0.09400
H1085       H  0.51285795  0.30803886  0.88894688     0.07500
Br1086     Br  0.49284169  0.34636156  0.84180259    -0.03200
C1087       C  0.61151779  0.18438588  0.93506355    -0.09800
C1088       C  0.59542355  0.15966707  0.92385789     0.06400
C1089       C  0.56694873  0.15300906  0.93825300    -0.03600
C1090       C  0.55210671  0.17464793  0.95736584    -0.08000
C1091       C  0.56376906  0.20358438  0.95887719     0.05500
C1092       C  0.59642711  0.20491105  0.95484624    -0.03000
Br1093     Br  0.62145054  0.22345773  0.98590099    -0.02700
H1094       H  0.63568202  0.18758791  0.92859448     0.09400
H1095       H  0.52906324  0.17055402  0.96640872     0.07500
Br1096     Br  0.54554190  0.11714814  0.92920397    -0.03200
C1097       C  0.05598948  0.05932861  0.62257027    -0.09800
C1098       C  0.02579571  0.05982148  0.63587091     0.06400
C1099       C  0.02150070  0.07695294  0.66317632    -0.03600
C1100       C  0.04599058  0.09290068  0.67553785    -0.08000
C1101       C  0.07642006  0.08987681  0.66432356     0.05500
C1102       C  0.08142017  0.07341973  0.63719827    -0.03000
Br1103     Br  0.12274708  0.06846326  0.62063930    -0.02700
H1104       H  0.06076410  0.04545969  0.60277456     0.09400
H1105       H  0.04207893  0.10454398  0.69685068     0.07500
Br1106     Br  0.98666532  0.07360799  0.69074784    -0.03200
C1107       C  0.06021185  0.46855107  0.72329232    -0.09800
C1108       C  0.04665042  0.45357406  0.69878786     0.06400
C1109       C  0.05369037  0.42277019  0.69500925    -0.03600
C1110       C  0.07310883  0.40750393  0.71654905    -0.08000
C1111       C  0.08560222  0.42253633  0.74191693     0.05500
C1112       C  0.07935080  0.45374293  0.74458854    -0.03000
Br1113     Br  0.09564576  0.47877124  0.77656111    -0.02700
H1114       H  0.05515555  0.49214622  0.72630150     0.09400
H1115       H  0.07761865  0.38379666  0.71396562     0.07500
Br1116     Br  0.03852590  0.40080731  0.66051958    -0.03200
C1117       C  0.89979205  0.11455752  0.65251736    -0.09800
C1118       C  0.89371644  0.08538199  0.64238599     0.06400
C1119       C  0.86909051  0.07103228  0.65742053    -0.03600
C1120       C  0.86270442  0.07859591  0.68760298    -0.08000
C1121       C  0.87420318  0.10449808  0.70036484     0.05500
C1122       C  0.88770881  0.12502279  0.68063757    -0.03000
Br1123     Br  0.88787732  0.16673795  0.69011546    -0.02700
H1124       H  0.91496734  0.12848133  0.63954584     0.09400
H1125       H  0.84847111  0.06441463  0.70103803     0.07500
Br1126     Br  0.84097654  0.04395583  0.63808550    -0.03200
C1127       C  0.93598132  0.43373125  0.63012725    -0.09800
C1128       C  0.93414662  0.46434243  0.63739168     0.06400
C1129       C  0.91603341  0.47316783  0.66372863    -0.03600
C1130       C  0.90080211  0.45242375  0.68076174    -0.08000
C1131       C  0.90694522  0.42228124  0.67648064     0.05500
C1132       C  0.92337887  0.41260025  0.65010021    -0.03000
Br1133     Br  0.93304378  0.37127153  0.64302486    -0.02700
H1134       H  0.95067362  0.42603286  0.61142771     0.09000
H1135       H  0.88805325  0.45990007  0.70092729     0.07500
Br1136     Br  0.91815398  0.01524406  0.68918372    -0.03200
C1137       C  0.58312887  0.16441771  0.71342402    -0.09800
C1138       C  0.57133491  0.15534370  0.74164439     0.06400
C1139       C  0.53895222  0.16143781  0.74807943    -0.03600
C1140       C  0.52017766  0.17727104  0.72774927    -0.08000
C1141       C  0.53291704  0.18953378  0.70202557     0.05500
C1142       C  0.56410289  0.18202471  0.69372353    -0.03000
Br1143     Br  0.58129077  0.19571660  0.65624681    -0.02700
H1144       H  0.60769554  0.16028403  0.70802332     0.09400
H1145       H  0.49601429  0.18295423  0.73365642     0.07500
Br1146     Br  0.51835602  0.15542901  0.78606437    -0.03200
C1147       C  0.36782698  0.32201771  0.66773227    -0.09800
C1148       C  0.39433091  0.33175399  0.65214526     0.06400
C1149       C  0.40274694  0.36172291  0.65698580    -0.03600
C1150       C  0.39279207  0.37671666  0.68349144    -0.08000
C1151       C  0.37095511  0.36393124  0.70256735     0.05500
C1152       C  0.35532082  0.33872244  0.69204191    -0.03000
Br1153     Br  0.31775183  0.32582918  0.71095281    -0.02700
H1154       H  0.35800620  0.30068528  0.66276782     0.09400
H1155       H  0.40331451  0.39744764  0.68998733     0.07500
Br1156     Br  0.42705373  0.38329933  0.62835374    -0.03200
C1157       C  0.54883502  0.30517459  0.64507052    -0.09800
C1158       C  0.51789826  0.30097829  0.65532850     0.06400
C1159       C  0.50881906  0.31537262  0.68325827    -0.03600
C1160       C  0.52953869  0.33324200  0.69900068    -0.08000
C1161       C  0.56083732  0.33575283  0.69012741     0.05500
C1162       C  0.57039102  0.32192326  0.66246975    -0.03000
Br1163     Br  0.61322157  0.32222905  0.64936951    -0.02700
H1164       H  0.55724376  0.29346687  0.62496112     0.09400
H1165       H  0.52151705  0.34357140  0.72011456     0.07500
Br1166     Br  0.47087682  0.30811839  0.70577069    -0.03200
C1167       C  0.45149387  0.17718637  0.62445207    -0.09800
C1168       C  0.43475022  0.20500260  0.62503581     0.06400
C1169       C  0.40333944  0.20418707  0.63480453    -0.03600
C1170       C  0.39473150  0.18180746  0.65499077    -0.08000
C1171       C  0.41613925  0.15851281  0.66236649     0.05500
C1172       C  0.44272760  0.15411906  0.64389781    -0.03000
Br1173     Br  0.47159506  0.12105551  0.65047595    -0.02700
H1174       H  0.47484659  0.17561135  0.61481771     0.09400
H1175       H  0.37161281  0.18282372  0.66520183     0.07500
Br1176     Br  0.37027321  0.22206022  0.61039918    -0.03200
C1177       C  0.51434229  0.76727838  0.13674417     0.29400
C1178       C  0.46569391  0.73060931  0.12314850     0.29400
C1179       C  0.48473892  0.77128363  0.15622293    -0.06800
C1180       C  0.50052633  0.77061649  0.10396516    -0.07600
C1181       C  0.52267550  0.73436133  0.13704624    -0.07500
C1182       C  0.45915465  0.75379991  0.14903027    -0.06800
C1183       C  0.47538965  0.75128233  0.09700810    -0.07600
C1184       C  0.49805766  0.71559229  0.13265440    -0.07500
C1185       C  0.43293101  0.77278664  0.15469855    -0.32900
N1186       N  0.44189486  0.79959778  0.16553904     0.13600
C1187       C  0.47345219  0.79791564  0.16772105    -0.32900
H1188       H  0.48820306  0.81542146  0.17561012     0.15600
C1189       C  0.47461263  0.74739322  0.06580711    -0.31800
N1190       N  0.49774259  0.76329910  0.05371334     0.12400
C1191       C  0.51447974  0.77625730  0.07633531    -0.31800
C1192       C  0.50901221  0.68864744  0.14478230    -0.32100
N1193       N  0.53966090  0.69040482  0.15331542     0.12900
H1194       H  0.49496650  0.67042322  0.15148663     0.15500
C1195       C  0.54853299  0.71820375  0.14736711    -0.32100
H1196       H  0.57029938  0.72738680  0.15557079     0.15500
H1197       H  0.53675842  0.78660841  0.07300955     0.15500
H1198       H  0.40891086  0.76817400  0.14980245     0.15600
H1199       H  0.46065673  0.73172989  0.05315898     0.15500
C1200       C  0.96216640  0.99126479  0.13363924     0.29400
C1201       C  0.00282315  0.54219784  0.12634219     0.29400
C1202       C  0.98583802  0.99441586  0.15966335    -0.06800
C1203       C  0.98426513  0.98855237  0.10554209    -0.07600
C1204       C  0.94742688  0.52812227  0.12536947    -0.07500
C1205       C  0.00653281  0.01727341  0.15757094    -0.06800
C1206       C  0.00505041  0.51927290  0.09953135    -0.07600
C1207       C  0.96730615  0.55147444  0.12466528    -0.07500
C1208       C  0.03414459  0.00704236  0.17185952    -0.32900
N1209       N  0.03045243  0.97923167  0.18240288     0.13600
C1210       C  0.00105651  0.97146407  0.17533181    -0.32900
H1211       H  0.99190603  0.94972857  0.17944895     0.15600
C1212       C  0.00911549  0.52490548  0.06885922    -0.31800
N1213       N  0.99409330  0.99666302  0.05620685     0.12400
C1214       C  0.97769419  0.97990500  0.07568296    -0.31800
C1215       C  0.94761028  0.57692138  0.12346192    -0.32100
N1216       N  0.91673043  0.56906278  0.12458373     0.12900
H1217       H  0.95546170  0.59949359  0.12493806     0.15500
C1218       C  0.91728975  0.53894305  0.12274019    -0.32100
H1219       H  0.89761097  0.52484012  0.12358929     0.15500
H1220       H  0.96030974  0.96419695  0.06856899     0.15500
H1221       H  0.05632929  0.01813362  0.17235990     0.15600
H1222       H  0.02191331  0.54300598  0.05937619     0.15500
C1223       C  0.53785644  0.72213929  0.45509878     0.29400
C1224       C  0.49216658  0.76587043  0.44442281     0.29400
C1225       C  0.50417866  0.71147863  0.44824178    -0.06800
C1226       C  0.52644916  0.74669475  0.97914140    -0.07600
C1227       C  0.54371407  0.74298248  0.42807473    -0.07500
C1228       C  0.48093688  0.73373455  0.44466976    -0.06800
C1229       C  0.50229743  0.76876410  0.97232825    -0.07600
C1230       C  0.52060977  0.76509593  0.42312108    -0.07500
C1231       C  0.45449780  0.72089338  0.43282190    -0.32900
N1232       N  0.46220955  0.69275986  0.42460665     0.13600
C1233       C  0.49211283  0.68669716  0.43386973    -0.32900
H1234       H  0.50521829  0.66728420  0.42590365     0.15600
C1235       C  0.48927522  0.77626020  0.00028437    -0.31800
N1236       N  0.50614946  0.76271609  0.02283048     0.12400
C1237       C  0.52789725  0.74386564  0.01048275    -0.31800
C1238       C  0.53479001  0.78870809  0.40933272    -0.32100
N1239       N  0.56556475  0.78176328  0.40507218     0.12900
H1240       H  0.52380434  0.81036784  0.40514264     0.15500
C1241       C  0.57112666  0.75443054  0.41690514    -0.32100
H1242       H  0.59439747  0.74496816  0.41949975     0.15500
H1243       H  0.54085949  0.72673584  0.02308923     0.15500
H1244       H  0.43302683  0.73246157  0.42545347     0.15600
H1245       H  0.46695781  0.78793444  0.00389363     0.15500
C1246       C  0.01799447  0.96368238  0.44897394     0.29400
C1247       C  0.97299527  0.50190331  0.43497107     0.29400
C1248       C  0.98510071  0.94950596  0.44454831    -0.06800
C1249       C  0.01093163  0.98701985  0.47426834    -0.07600
C1250       C  0.02676562  0.48434148  0.41936954    -0.07500
C1251       C  0.95999500  0.96963060  0.44023633    -0.06800
C1252       C  0.98817268  0.50477860  0.46747673    -0.07600
C1253       C  0.00163989  0.50401653  0.41472285    -0.07500
C1254       C  0.93311513  0.95423685  0.43598855    -0.32900
N1255       N  0.94056718  0.92476023  0.43499887     0.13600
C1256       C  0.97221130  0.92169668  0.44022210    -0.32900
H1257       H  0.98494442  0.90082486  0.43774833     0.15600
C1258       C  0.97696671  0.51562985  0.99803574    -0.31800
N1259       N  0.99488214  0.50209972  0.02027509     0.12400
C1260       C  0.01662142  0.97346851  0.01067120    -0.31800
C1261       C  0.01196434  0.52759215  0.39844420    -0.32100
N1262       N  0.04240104  0.52273506  0.39139187     0.12900
H1263       H  0.99840343  0.54766054  0.39280587     0.15500
C1264       C  0.05197647  0.49627988  0.40374297    -0.32100
H1265       H  0.07563451  0.48701141  0.40189098     0.15500
H1266       H  0.03309171  0.95866205  0.02260527     0.15500
H1267       H  0.91069941  0.96435940  0.42932965     0.15600
H1268       H  0.95611549  0.52943524  0.00223525     0.15500
O1269       O  0.69569220  0.86921163  0.25163020    -0.82400
C1270       C  0.56922831  0.89585545  0.27117712     0.96900
O1271       O  0.58269415  0.90332913  0.24625764    -0.71500
O1272       O  0.63752104  0.92883251  0.25241622    -0.75100
Al1273     Al  0.62638338  0.89409187  0.23144102     1.49000
C1274       C  0.65586319  0.93457327  0.27424292     0.92200
O1275       O  0.64905458  0.87205177  0.32488943    -0.81400
O1276       O  0.63365629  0.81218899  0.25916893    -0.74900
Al1277     Al  0.66978011  0.87080265  0.28563283     1.90100
O1278       O  0.61837689  0.83625683  0.31261103    -0.74000
O1279       O  0.58385870  0.84263260  0.23540751    -0.73800
O1280       O  0.57954861  0.87382716  0.28650071    -0.79500
O1281       O  0.61450630  0.86267115  0.20325058    -0.77700
O1282       O  0.63464392  0.87000619  0.26308373    -1.13800
O1283       O  0.66806178  0.88888872  0.21359353    -0.73000
C1284       C  0.69341218  0.87711895  0.22421217     0.97700
C1285       C  0.63230170  0.85089927  0.33258280     0.94100
Al1286     Al  0.60645571  0.84370642  0.27242281     1.55600
O1287       O  0.67051908  0.91376153  0.28835802    -0.77600
C1288       C  0.59336444  0.84471069  0.20863479     0.98300
C1289       C  0.66014260  0.80672541  0.27211269     0.93100
O1290       O  0.67486727  0.82727806  0.28597718    -0.83000
O1291       O  0.69043190  0.61326442  0.32143671    -0.82400
C1292       C  0.56422266  0.60771788  0.32567325     0.96900
O1293       O  0.58650520  0.58867625  0.33138042    -0.71500
O1294       O  0.64632053  0.56636507  0.32886624    -0.75100
Al1295     Al  0.62669927  0.59875456  0.35006434     1.49000
C1296       C  0.64908461  0.56098447  0.30095422     0.92200
O1297       O  0.62773592  0.63368698  0.26057466    -0.81400
O1298       O  0.63482513  0.68771288  0.31909045    -0.74900
Al1299     Al  0.65719860  0.62324848  0.29240430     1.90100
O1300       O  0.59170239  0.65968142  0.28547821    -0.74000
O1301       O  0.61352035  0.66557694  0.36877596    -0.73800
O1302       O  0.56739488  0.63505758  0.33278514    -0.79500
O1303       O  0.60587864  0.62061339  0.38274242    -0.77700
O1304       O  0.62965954  0.62756696  0.32257919    -1.13800
O1305       O  0.66736267  0.60876262  0.36693422    -0.73000
C1306       C  0.69184467  0.61230477  0.35064874     0.97700
C1307       C  0.60231026  0.64913532  0.26094018     0.94100
Al1308     Al  0.60408434  0.65930678  0.32643018     1.55600
O1309       O  0.64822450  0.58248500  0.28282381    -0.77600
C1310       C  0.60682716  0.64775942  0.38938349     0.98300
C1311       C  0.65967557  0.68692692  0.30375678     0.93100
O1312       O  0.67128700  0.66282253  0.29364622    -0.83000
O1313       O  0.31819298  0.88516782  0.32164693    -0.82400
C1314       C  0.44694865  0.90061531  0.31381019     0.96900
O1315       O  0.43179516  0.90697206  0.33838917    -0.71500
O1316       O  0.37942811  0.93897028  0.33179246    -0.75100
Al1317     Al  0.38696832  0.90130307  0.34883275     1.49000
C1318       C  0.36219552  0.94941344  0.31082582     0.92200
O1319       O  0.36967135  0.89379591  0.25337725    -0.81400
O1320       O  0.37785361  0.82382735  0.30925160    -0.74900
Al1321     Al  0.34624913  0.88884787  0.29003502     1.90100
O1322       O  0.39802665  0.85320880  0.25997586    -0.74000
O1323       O  0.42626100  0.84425327  0.34091833    -0.73800
O1324       O  0.43715242  0.88160345  0.29495093    -0.79500
O1325       O  0.39581249  0.86673486  0.37356810    -0.77700
O1326       O  0.37986686  0.88155659  0.31400460    -1.13800
O1327       O  0.34362346  0.89891731  0.36321865    -0.73000
C1328       C  0.31868828  0.89073151  0.34973121     0.97700
C1329       C  0.38602362  0.87260830  0.24255412     0.94100
Al1330     Al  0.40735358  0.85336953  0.30244164     1.55600
O1331       O  0.34657134  0.93197661  0.29409903    -0.77600
C1332       C  0.41641946  0.84698189  0.36770882     0.98300
C1333       C  0.35254714  0.82268857  0.29388559     0.93100
O1334       O  0.33981717  0.84616122  0.28202086    -0.83000
O1335       O  0.32010264  0.63540095  0.24838562    -0.82400
C1336       C  0.45001295  0.61651031  0.25596100     0.96900
O1337       O  0.43359635  0.60258935  0.23609127    -0.71500
O1338       O  0.38340199  0.57611551  0.25144906    -0.75100
Al1339     Al  0.38808925  0.60763989  0.22496204     1.49000
C1340       C  0.36482209  0.57154224  0.27256208     0.92200
O1341       O  0.37809144  0.63700117  0.31366463    -0.81400
O1342       O  0.37365450  0.69489233  0.24505339    -0.74900
Al1343     Al  0.35019863  0.63607190  0.27946803     1.90100
O1344       O  0.40382528  0.67466704  0.29630382    -0.74000
O1345       O  0.41726500  0.66938633  0.21171109    -0.73800
O1346       O  0.44204524  0.64262193  0.26398062    -0.79500
O1347       O  0.39359726  0.63256595  0.19069346    -0.77700
O1348       O  0.38168002  0.63674155  0.25252136    -1.13800
O1349       O  0.34352256  0.60835412  0.21214210    -0.73000
C1350       C  0.31938275  0.62241265  0.22279629     0.97700
C1351       C  0.39697614  0.65771527  0.31781263     0.94100
Al1352     Al  0.40707254  0.66749044  0.25382779     1.55600
O1353       O  0.34942440  0.59304083  0.28451046    -0.77600
C1354       C  0.40746863  0.65640093  0.18825266     0.98300
C1355       C  0.35207001  0.70020496  0.26408668     0.93100
O1356       O  0.34286653  0.67942108  0.28107257    -0.83000
O1357       O  0.19026299  0.86501065  0.32111034    -0.82400
C1358       C  0.06690296  0.86445276  0.32971827     0.96900
O1359       O  0.08767043  0.84348045  0.33435497    -0.71500
O1360       O  0.14780274  0.81944951  0.33049802    -0.75100
Al1361     Al  0.12847799  0.85118050  0.35264556     1.49000
C1362       C  0.14711464  0.81385716  0.30256650     0.92200
O1363       O  0.12334428  0.88987192  0.26451872    -0.81400
O1364       O  0.14387091  0.93985086  0.32982339    -0.74900
Al1365     Al  0.15542711  0.87652074  0.29397756     1.90100
O1366       O  0.09721831  0.92056641  0.29492459    -0.74000
O1367       O  0.12060437  0.91510444  0.37705863    -0.73800
O1368       O  0.07185068  0.89118960  0.33864642    -0.79500
O1369       O  0.10738585  0.87078250  0.38647831    -0.77700
O1370       O  0.13144828  0.88098408  0.32649323    -1.13800
O1371       O  0.16958008  0.86074740  0.36818131    -0.73000
C1372       C  0.19294227  0.86516157  0.35046634     0.97700
C1373       C  0.10370001  0.91144991  0.26860693     0.94100
Al1374     Al  0.10994048  0.91389368  0.33468581     1.55600
O1375       O  0.14401386  0.83555979  0.28454278    -0.77600
C1376       C  0.10916182  0.89721293  0.39514873     0.98300
C1377       C  0.16409827  0.93974800  0.30891468     0.93100
O1378       O  0.17098115  0.91605210  0.29455562    -0.83000
O1379       O  0.18929035  0.63092864  0.24952627    -0.82400
C1380       C  0.06507298  0.64299135  0.24422250     0.96900
O1381       O  0.08659513  0.66178289  0.23971448    -0.71500
O1382       O  0.14727849  0.68092444  0.24101204    -0.75100
Al1383     Al  0.12612428  0.65057256  0.22021775     1.49000
C1384       C  0.14802804  0.68681107  0.26881408     0.92200
O1385       O  0.12425260  0.61392472  0.30828377    -0.81400
O1386       O  0.14115418  0.56060748  0.24267684    -0.74900
Al1387     Al  0.15559290  0.62324898  0.27799704     1.90100
O1388       O  0.09713413  0.58381565  0.27939716    -0.74000
O1389       O  0.11457751  0.58734939  0.19599003    -0.73800
O1390       O  0.06931727  0.61531627  0.23730070    -0.79500
O1391       O  0.10240707  0.63305010  0.18761319    -0.77700
O1392       O  0.12993950  0.62055706  0.24626803    -1.13800
O1393       O  0.16609635  0.63811876  0.20324301    -0.73000
C1394       C  0.19056979  0.63261738  0.22015728     0.97700
C1395       C  0.10312021  0.59477576  0.30505327     0.94100
Al1396     Al  0.10728931  0.58930842  0.23915464     1.55600
O1397       O  0.14616955  0.66542346  0.28712686    -0.77600
C1398       C  0.10154713  0.60650825  0.17919183     0.98300
C1399       C  0.16203259  0.55911746  0.26346335     0.93100
O1400       O  0.16954483  0.58226419  0.27783242    -0.83000
O1401       O  0.81511084  0.88193886  0.25181060    -0.82400
C1402       C  0.94624246  0.86344909  0.26993974     0.96900
O1403       O  0.93112694  0.85222895  0.24757240    -0.71500
O1404       O  0.88206036  0.82085801  0.26152371    -0.75100
Al1405     Al  0.88549213  0.85417449  0.23695760     1.49000
C1406       C  0.85745337  0.81262745  0.27411447     0.92200
O1407       O  0.85958259  0.86615604  0.32503682    -0.81400
O1408       O  0.86648079  0.93706609  0.27142151    -0.74900
Al1409     Al  0.83834887  0.87420358  0.28740962     1.90100
O1410       O  0.88996588  0.90471687  0.32160946    -0.74000
O1411       O  0.91258846  0.91654655  0.23825110    -0.73800
O1412       O  0.93324895  0.88273136  0.28681161    -0.79500
O1413       O  0.89059677  0.88439986  0.20775403    -0.77700
O1414       O  0.87437724  0.87870423  0.26747293    -1.13800
O1415       O  0.84202019  0.85194249  0.22071507    -0.73000
C1416       C  0.81733426  0.86770187  0.22698332     0.97700
C1417       C  0.87853482  0.88390644  0.33699812     0.94100
Al1418     Al  0.89858531  0.90790828  0.27854989     1.55600
O1419       O  0.83628659  0.83161980  0.28142150    -0.77600
C1420       C  0.90525456  0.90784648  0.21162425     0.98300
C1421       C  0.84146722  0.93896692  0.28638792     0.93100
O1422       O  0.83062343  0.91599472  0.29839037    -0.83000
O1423       O  0.81281355  0.62142298  0.31684440    -0.82400
C1424       C  0.94183914  0.63616733  0.29438807     0.96900
O1425       O  0.92875977  0.64501673  0.31935090    -0.71500
O1426       O  0.87657596  0.67753365  0.31271482    -0.75100
Al1427     Al  0.88394007  0.64209967  0.33341268     1.49000
C1428       C  0.85451788  0.68648923  0.29553813     0.92200
O1429       O  0.85418928  0.63142851  0.24278639    -0.81400
O1430       O  0.86839740  0.56268422  0.29880317    -0.74900
Al1431     Al  0.83552536  0.62605120  0.28172313     1.90100
O1432       O  0.88449229  0.59140856  0.24632166    -0.74000
O1433       O  0.91783289  0.58147961  0.32738125    -0.73800
O1434       O  0.92932415  0.61634084  0.27834103    -0.79500
O1435       O  0.89273226  0.60957903  0.36013388    -0.77700
O1436       O  0.87247590  0.61995435  0.30139051    -1.13800
O1437       O  0.84168244  0.64297583  0.35207383    -0.73000
C1438       C  0.81634502  0.63076516  0.34362298     0.97700
C1439       C  0.87000294  0.61083276  0.23017081     0.94100
Al1440     Al  0.89789080  0.59055357  0.28877783     1.55600
O1441       O  0.83443819  0.66883454  0.28533425    -0.77600
C1442       C  0.90994457  0.58713168  0.35459498     0.98300
C1443       C  0.84105658  0.56123993  0.28766417     0.93100
O1444       O  0.82797503  0.58368872  0.27460167    -0.83000
C1445       C  0.88194813  0.76251071  0.27703117    -0.09800
C1446       C  0.85438322  0.78037168  0.27953348     0.06400
C1447       C  0.82556684  0.76649385  0.28510907    -0.03600
C1448       C  0.82540928  0.73549352  0.28920948    -0.08000
C1449       C  0.85344577  0.71816048  0.28737402     0.05500
C1450       C  0.88160870  0.73196500  0.28031169    -0.03000
Br1451     Br  0.92054304  0.71033077  0.27322646    -0.02700
H1452       H  0.90428917  0.77225409  0.27214779     0.09400
H1453       H  0.80354175  0.72502240  0.29440536     0.07500
Br1454     Br  0.78575222  0.78796929  0.28630064    -0.03200
C1455       C  0.81573140  0.98530771  0.26632672    -0.09800
C1456       C  0.82719412  0.96889249  0.29152792     0.06400
C1457       C  0.83249698  0.98386172  0.31932148    -0.03600
C1458       C  0.83387102  0.51474915  0.31511199    -0.08000
C1459       C  0.82661363  0.53188850  0.28908876     0.05500
C1460       C  0.81568130  0.51741674  0.26262489    -0.03000
Br1461     Br  0.79806889  0.53882606  0.22850619    -0.02700
H1462       H  0.81106260  0.97410947  0.24494464     0.09400
H1463       H  0.84154876  0.52556093  0.33599523     0.07500
Br1464     Br  0.84777787  0.96355306  0.35512223    -0.03200
C1465       C  0.99841926  0.65325005  0.30163966    -0.09800
C1466       C  0.97239285  0.64758263  0.28250020     0.06400
C1467       C  0.97742557  0.64830769  0.25052285    -0.03600
C1468       C  0.00753291  0.65030352  0.23842962    -0.08000
C1469       C  0.03389919  0.65230251  0.25732673     0.05500
C1470       C  0.02895455  0.65591850  0.28920068    -0.03000
Br1471     Br  0.06348050  0.66230496  0.31662328    -0.02700
H1472       H  0.99555059  0.65354477  0.32620985     0.09400
H1473       H  0.01046768  0.64872539  0.21394206     0.07500
Br1474     Br  0.94431982  0.64545115  0.22136057    -0.03200
C1475       C  0.02784034  0.88302383  0.29130989    -0.09800
C1476       C  0.03770511  0.85974412  0.31085976     0.06400
C1477       C  0.01976167  0.83381253  0.31080335    -0.03600
C1478       C  0.99116681  0.83305800  0.29376505    -0.08000
C1479       C  0.98040660  0.85765637  0.27622166     0.05500
C1480       C  0.00019849  0.88196221  0.27392955    -0.03000
Br1481     Br  0.98909937  0.91595205  0.24920621    -0.02700
H1482       H  0.04128294  0.90289519  0.28996980     0.09400
H1483       H  0.97620945  0.81422920  0.29616395     0.07500
Br1484     Br  0.03128509  0.80044081  0.33602478    -0.03200
C1485       C  0.14789260  0.74113385  0.25521113    -0.09800
C1486       C  0.15005180  0.71906954  0.27821621     0.06400
C1487       C  0.15337960  0.72888239  0.30873642    -0.03600
C1488       C  0.15291887  0.75952008  0.31557477    -0.08000
C1489       C  0.14946135  0.78160649  0.29269911     0.05500
C1490       C  0.14770224  0.77179203  0.26201991    -0.03000
Br1491     Br  0.14488318  0.79868807  0.22811455    -0.02700
H1492       H  0.14588081  0.73460431  0.23141370     0.09400
H1493       H  0.15507977  0.76601802  0.33936800     0.07500
Br1494     Br  0.15917712  0.70194232  0.34232633    -0.03200
C1495       C  0.17788640  0.99220376  0.31975672    -0.09800
C1496       C  0.17608240  0.96876408  0.29854146     0.06400
C1497       C  0.17740949  0.97570639  0.26699071    -0.03600
C1498       C  0.17622257  0.50594162  0.25176963    -0.08000
C1499       C  0.17501664  0.52933094  0.27315254     0.05500
C1500       C  0.17991449  0.52226751  0.30444626    -0.03000
Br1501     Br  0.18157672  0.55174362  0.33626976    -0.02700
H1502       H  0.17704776  0.98744139  0.34398874     0.09400
H1503       H  0.17314437  0.51074902  0.22765833     0.07500
Br1504     Br  0.17428659  0.94638606  0.23507701    -0.03200
C1505       C  0.23991956  0.65429958  0.20367025    -0.09800
C1506       C  0.22212569  0.62896173  0.20657400     0.06400
C1507       C  0.23761380  0.60073683  0.20518075    -0.03600
C1508       C  0.27067510  0.59834425  0.20537880    -0.08000
C1509       C  0.28852755  0.62394095  0.20684208     0.05500
C1510       C  0.27281844  0.65194754  0.20363974    -0.03000
Br1511     Br  0.29532164  0.68804351  0.20393520    -0.02700
H1512       H  0.22840213  0.67613954  0.20465419     0.09400
H1513       H  0.28221097  0.57663851  0.20787231     0.07500
Br1514     Br  0.21461898  0.56497211  0.20605265    -0.03200
C1515       C  0.23286802  0.90281104  0.35732710    -0.09800
C1516       C  0.22386418  0.87365597  0.36295607     0.06400
C1517       C  0.24683903  0.85255863  0.37293365    -0.03600
C1518       C  0.27876121  0.86005415  0.37396783    -0.08000
C1519       C  0.28807729  0.88841635  0.36495107     0.05500
C1520       C  0.26454832  0.91022111  0.35806013    -0.03000
Br1521     Br  0.27504663  0.94870073  0.34322532    -0.02700
H1522       H  0.21547899  0.91920311  0.34930695     0.09400
H1523       H  0.29652156  0.84273918  0.37838208     0.07500
Br1524     Br  0.23602524  0.81242550  0.38112472    -0.03200
C1525       C  0.34608416  0.78358065  0.25539477    -0.09800
C1526       C  0.34163603  0.79285533  0.28559077     0.06400
C1527       C  0.33467505  0.77148553  0.30767495    -0.03600
C1528       C  0.33447034  0.74116860  0.29954329    -0.08000
C1529       C  0.34160822  0.73171192  0.26951818     0.05500
C1530       C  0.34555057  0.75366590  0.24704176    -0.03000
Br1531     Br  0.35291084  0.74478610  0.20477614    -0.02700
H1532       H  0.35332676  0.79929802  0.23866825     0.09400
H1533       H  0.33140388  0.72489854  0.31732271     0.07500
Br1534     Br  0.32775879  0.78267598  0.34948532    -0.03200
C1535       C  0.33822586  0.99509127  0.28577767    -0.09800
C1536       C  0.36073556  0.98252588  0.30607587     0.06400
C1537       C  0.38154578  0.00219068  0.32120692    -0.03600
C1538       C  0.36780429  0.53227306  0.31273828    -0.08000
C1539       C  0.36176480  0.54018537  0.28233484     0.05500
C1540       C  0.35759854  0.51727403  0.26048767    -0.03000
Br1541     Br  0.34828184  0.52573146  0.21829817    -0.02700
H1542       H  0.32138170  0.98105245  0.27452412     0.09400
H1543       H  0.37200254  0.54952552  0.32954662     0.07500
Br1544     Br  0.41420985  0.98959278  0.34954348    -0.03200
C1545       C  0.50711216  0.59755683  0.25863768    -0.09800
C1546       C  0.47796405  0.60277735  0.27273853     0.06400
C1547       C  0.47740502  0.60110670  0.30505194    -0.03600
C1548       C  0.50542953  0.60164734  0.32256854    -0.08000
C1549       C  0.53486350  0.59939120  0.30846263     0.05500
C1550       C  0.53507005  0.59420213  0.27641050    -0.03000
Br1551     Br  0.57286162  0.58288885  0.25579923    -0.02700
H1552       H  0.50841136  0.59725881  0.23392064     0.09400
H1553       H  0.50418276  0.60358083  0.34723137     0.07500
Br1554     Br  0.43901753  0.59421094  0.32576714    -0.03200
C1555       C  0.73422986  0.64549694  0.36706991    -0.09800
C1556       C  0.72333201  0.61640317  0.36465957     0.06400
C1557       C  0.74548273  0.59251325  0.36586029    -0.03600
C1558       C  0.77781453  0.59797458  0.36569330    -0.08000
C1559       C  0.78865446  0.62712551  0.36334220     0.05500
C1560       C  0.76662880  0.65096925  0.36644848    -0.03000
Br1561     Br  0.77962794  0.69122528  0.36357728    -0.02700
H1562       H  0.71746517  0.66407707  0.36590195     0.09400
H1563       H  0.79429680  0.57927769  0.36280495     0.07500
Br1564     Br  0.73253908  0.55220851  0.36233090    -0.03200
C1565       C  0.53421976  0.90819895  0.31469121    -0.09800
C1566       C  0.53968504  0.91038275  0.28297741     0.06400
C1567       C  0.51411589  0.91866419  0.26378389    -0.03600
C1568       C  0.48353760  0.92004305  0.27571542    -0.08000
C1569       C  0.47782489  0.91301362  0.30653726     0.05500
C1570       C  0.50369960  0.90896486  0.32648961    -0.03000
Br1571     Br  0.49868331  0.89830778  0.36856960    -0.02700
H1572       H  0.55358161  0.90234141  0.32997879     0.09400
H1573       H  0.46380592  0.92336354  0.26005526     0.07500
Br1574     Br  0.51863346  0.92361453  0.22055438    -0.03200
C1575       C  0.74018555  0.89819271  0.20103304    -0.09800
C1576       C  0.72242383  0.87308752  0.20611718     0.06400
C1577       C  0.73802387  0.84483851  0.20582893    -0.03600
C1578       C  0.77100091  0.84252173  0.20672556    -0.08000
C1579       C  0.78866541  0.86819625  0.20759128     0.05500
C1580       C  0.77318148  0.89580151  0.20151158    -0.03000
Br1581     Br  0.79640780  0.93138502  0.19892466    -0.02700
H1582       H  0.72874673  0.92007980  0.20091572     0.09400
H1583       H  0.78243010  0.82105057  0.21110137     0.07500
Br1584     Br  0.71521811  0.80914035  0.20973045    -0.03200
C1585       C  0.66185440  0.72351563  0.26304523    -0.09800
C1586       C  0.67136553  0.71519054  0.29264044     0.06400
C1587       C  0.68487538  0.73634120  0.31201694    -0.03600
C1588       C  0.68553291  0.76608960  0.30277367    -0.08000
C1589       C  0.67120510  0.77525628  0.27506078     0.05500
C1590       C  0.66141867  0.75327882  0.25417518    -0.03000
Br1591     Br  0.64513436  0.76249543  0.21409010    -0.02700
H1592       H  0.65184300  0.70721201  0.24774106     0.09400
H1593       H  0.69442984  0.78241806  0.31863460     0.07500
Br1594     Br  0.70016407  0.72608041  0.35201073    -0.03200
C1595       C  0.65704293  0.98790681  0.25925728    -0.09800
C1596       C  0.65947348  0.96651621  0.28261167     0.06400
C1597       C  0.66217131  0.97656718  0.31308702    -0.03600
C1598       C  0.65985900  0.50732411  0.31294931    -0.08000
C1599       C  0.65272463  0.52918412  0.29067965     0.05500
C1600       C  0.64777179  0.51952895  0.26021162    -0.03000
Br1601     Br  0.64160201  0.54626296  0.22648244    -0.02700
H1602       H  0.65539574  0.98069848  0.23562045     0.09400
H1603       H  0.66470592  0.51391224  0.33635085     0.07500
Br1604     Br  0.66536304  0.94969903  0.34697890    -0.03200
C1605       C  0.04259759  0.55098828  0.34463433    -0.09800
C1606       C  0.05864073  0.54184163  0.37112525     0.06400
C1607       C  0.08789611  0.55429168  0.37825371    -0.03600
C1608       C  0.10105914  0.57448940  0.35797411    -0.08000
C1609       C  0.08545657  0.58230198  0.33056299     0.05500
C1610       C  0.05524148  0.57100131  0.32471188    -0.03000
Br1611     Br  0.02968447  0.58021520  0.28926052    -0.02700
H1612       H  0.01980020  0.54210567  0.33925848     0.09400
H1613       H  0.12414776  0.58286932  0.36289451     0.07500
Br1614     Br  0.11050181  0.54514850  0.41515039    -0.03200
C1615       C  0.04539246  0.91184049  0.45242983    -0.09800
C1616       C  0.04740345  0.94288829  0.45363976     0.06400
C1617       C  0.07799388  0.95373181  0.45113999    -0.03600
C1618       C  0.10048040  0.93723778  0.43426674    -0.08000
C1619       C  0.09378077  0.90857405  0.42350327     0.05500
C1620       C  0.06788153  0.89453089  0.43644668    -0.03000
Br1621     Br  0.06019226  0.85302212  0.43115460    -0.02700
H1622       H  0.02624515  0.90109157  0.46309642     0.09400
H1623       H  0.12202968  0.94758675  0.42777578     0.07500
Br1624     Br  0.08919155  0.99113772  0.46845734    -0.03200
C1625       C  0.87208064  0.89754471  0.39137351    -0.09800
C1626       C  0.88837782  0.88104198  0.36908523     0.06400
C1627       C  0.91881537  0.86994095  0.37581064    -0.03600
C1628       C  0.93537322  0.88147495  0.40061889    -0.08000
C1629       C  0.92114151  0.90328894  0.41966558     0.05500
C1630       C  0.88803969  0.90783026  0.41732333    -0.03000
Br1631     Br  0.86380995  0.92870448  0.44793917    -0.02700
H1632       H  0.84771165  0.90440467  0.38747093     0.09400
H1633       H  0.96007611  0.87537454  0.40278218     0.07500
Br1634     Br  0.93928477  0.84104115  0.35005809    -0.03200
C1635       C  0.92184174  0.53600641  0.37064293    -0.09800
C1636       C  0.91986195  0.56581866  0.37911290     0.06400
C1637       C  0.92970047  0.57380014  0.40900707    -0.03600
C1638       C  0.94246301  0.55185899  0.42919789    -0.08000
C1639       C  0.94746506  0.52211212  0.41945422     0.05500
C1640       C  0.93696369  0.51481523  0.38900836    -0.03000
Br1641     Br  0.93943008  0.97849413  0.37060676    -0.02700
H1642       H  0.91442794  0.52954214  0.34780292     0.09400
H1643       H  0.95185638  0.55877616  0.45111741     0.07500
Br1644     Br  0.93086931  0.61462372  0.42156023    -0.03200
C1645       C  0.58556157  0.83233033  0.39765918    -0.09800
C1646       C  0.58918177  0.80122422  0.39390959     0.06400
C1647       C  0.61564589  0.78983346  0.37782931    -0.03600
C1648       C  0.63707295  0.80926493  0.36582769    -0.08000
C1649       C  0.62946274  0.83974930  0.36381584     0.05500
C1650       C  0.60517449  0.85155677  0.38216579    -0.03000
Br1651     Br  0.59568089  0.89342146  0.38300686    -0.02700
H1652       H  0.56623079  0.84176196  0.41081878     0.09400
H1653       H  0.65554968  0.79996142  0.35152390     0.07500
Br1654     Br  0.61972486  0.74933760  0.36380083    -0.03200
C1655       C  0.44553197  0.66808025  0.34509555    -0.09800
C1656       C  0.41349770  0.66209189  0.34685477     0.06400
C1657       C  0.39832510  0.66349085  0.37520899    -0.03600
C1658       C  0.41536485  0.67178729  0.40127650    -0.08000
C1659       C  0.44724068  0.67869297  0.39924012     0.05500
C1660       C  0.46241141  0.67661659  0.37071131    -0.03000
Br1661     Br  0.50463217  0.68895935  0.36367995    -0.02700
H1662       H  0.45729331  0.66729682  0.32321029     0.09400
H1663       H  0.40344571  0.67437717  0.42293451     0.07500
Br1664     Br  0.35402562  0.65788393  0.37877648    -0.03200
C1665       C  0.44166253  0.83674260  0.41950486    -0.09800
C1666       C  0.42984386  0.82640806  0.39124280     0.06400
C1667       C  0.43625956  0.79669847  0.38303237    -0.03600
C1668       C  0.45610995  0.77908877  0.40096186    -0.08000
C1669       C  0.46767149  0.78807406  0.42987365     0.05500
C1670       C  0.46063097  0.81800718  0.43877603    -0.03000
Br1671     Br  0.48033236  0.83674728  0.47302582    -0.02700
H1672       H  0.43803243  0.85996696  0.42558283     0.09400
H1673       H  0.46374165  0.75801363  0.39103567     0.07500
Br1674     Br  0.41955920  0.77809223  0.34694489    -0.03200
C1675       C  0.61137805  0.68481064  0.43241768    -0.09800
C1676       C  0.59723513  0.65945720  0.41997981     0.06400
C1677       C  0.57101575  0.64858547  0.43548129    -0.03600
C1678       C  0.55549908  0.66699099  0.45702517    -0.08000
C1679       C  0.56351039  0.69693846  0.45980969     0.05500
C1680       C  0.59542277  0.70212245  0.45470404    -0.03000
Br1681     Br  0.61639239  0.73307450  0.47646720    -0.02700
H1682       H  0.63381532  0.69177574  0.42401407     0.09400
H1683       H  0.53449661  0.65934568  0.46778228     0.07500
Br1684     Br  0.55242422  0.61149798  0.42523535    -0.03200
C1685       C  0.05761420  0.56194324  0.11937025    -0.09800
C1686       C  0.02654573  0.56688798  0.13015147     0.06400
C1687       C  0.02209847  0.58874466  0.15353786    -0.03600
C1688       C  0.04690125  0.60587503  0.16329848    -0.08000
C1689       C  0.07783933  0.59765885  0.15616867     0.05500
C1690       C  0.08328657  0.57584397  0.13351357    -0.03000
Br1691     Br  0.12523183  0.56261077  0.12348589    -0.02700
H1692       H  0.06263206  0.54419039  0.10318020     0.09400
H1693       H  0.04264651  0.62185747  0.18145903     0.07500
Br1694     Br  0.98770482  0.58987192  0.18177681    -0.03200
C1695       C  0.06585953  0.97610204  0.22574781    -0.09800
C1696       C  0.05268156  0.96216882  0.20052154     0.06400
C1697       C  0.05928781  0.93150620  0.19543218    -0.03600
C1698       C  0.07751967  0.91506124  0.21685652    -0.08000
C1699       C  0.08874886  0.92883681  0.24347795     0.05500
C1700       C  0.08328304  0.96003695  0.24727816    -0.03000
Br1701     Br  0.09716262  0.98329377  0.28164448    -0.02700
H1702       H  0.06092428  0.99960448  0.22962763     0.09400
H1703       H  0.08173688  0.89141870  0.21336651     0.07500
Br1704     Br  0.04462191  0.91140111  0.15950308    -0.03200
C1705       C  0.89611718  0.61602434  0.14874393    -0.09800
C1706       C  0.89163574  0.58618676  0.13983544     0.06400
C1707       C  0.86750686  0.57137401  0.15521203    -0.03600
C1708       C  0.86000693  0.58008632  0.18486029    -0.08000
C1709       C  0.86996804  0.60705211  0.19659675     0.05500
C1710       C  0.88300112  0.62719636  0.17616105    -0.03000
Br1711     Br  0.88084922  0.66928948  0.18355416    -0.02700
H1712       H  0.91073736  0.63008700  0.13533798     0.09400
H1713       H  0.84633947  0.56579990  0.19877763     0.07500
Br1714     Br  0.84138351  0.54195543  0.13687199    -0.03200
C1715       C  0.94070821  0.93891520  0.13887930    -0.09800
C1716       C  0.93838501  0.96951072  0.14603849     0.06400
C1717       C  0.92090370  0.97818685  0.17280485    -0.03600
C1718       C  0.90663682  0.95725347  0.19040568    -0.08000
C1719       C  0.91246410  0.92713018  0.18558399     0.05500
C1720       C  0.92873924  0.91765489  0.15904350    -0.03000
Br1721     Br  0.93932372  0.87646961  0.15208498    -0.02700
H1722       H  0.95516295  0.93138393  0.11994780     0.09000
H1723       H  0.89423225  0.96460232  0.21081134     0.07500
Br1724     Br  0.92169412  0.51906288  0.19085446    -0.03200
C1725       C  0.60073115  0.65497529  0.20444923    -0.09800
C1726       C  0.58458937  0.65558206  0.23235994     0.06400
C1727       C  0.55224358  0.66451015  0.23247070    -0.03600
C1728       C  0.53713494  0.67219185  0.20520404    -0.08000
C1729       C  0.55379766  0.67370668  0.17790927     0.05500
C1730       C  0.58578778  0.66479565  0.17751556    -0.03000
Br1731     Br  0.61018164  0.66766023  0.14114672    -0.02700
H1732       H  0.62554569  0.64869672  0.20387701     0.09400
H1733       H  0.51277315  0.68004295  0.20586309     0.07500
Br1734     Br  0.52704334  0.67011369  0.26852867    -0.03200
C1735       C  0.38999884  0.82238770  0.17999588    -0.09800
C1736       C  0.42209749  0.82543976  0.17337506     0.06400
C1737       C  0.43473503  0.85401999  0.17795688    -0.03600
C1738       C  0.41966583  0.87415617  0.19789514    -0.08000
C1739       C  0.39026212  0.86792534  0.20971019     0.05500
C1740       C  0.37358611  0.84477155  0.19630123    -0.03000
Br1741     Br  0.32907153  0.84272076  0.20212915    -0.02700
H1742       H  0.37795724  0.80241956  0.17388651     0.09400
H1743       H  0.43190085  0.89350015  0.20590810     0.07500
Br1744     Br  0.47013711  0.86828777  0.15607849    -0.03200
C1745       C  0.55197046  0.81163106  0.13816352    -0.09800
C1746       C  0.54012133  0.78588879  0.15164539     0.06400
C1747       C  0.54915720  0.77962938  0.18254002    -0.03600
C1748       C  0.56988107  0.79740786  0.19791187    -0.08000
C1749       C  0.57955520  0.82415035  0.18578723     0.05500
C1750       C  0.57109785  0.83108110  0.15525782    -0.03000
Br1751     Br  0.58223961  0.86785289  0.13722797    -0.02700
H1752       H  0.54450173  0.81797143  0.11536731     0.09400
H1753       H  0.57612859  0.79148623  0.22125791     0.07500
Br1754     Br  0.53062552  0.75061972  0.20881085    -0.03200
C1755       C  0.44783800  0.67742148  0.11571075    -0.09800
C1756       C  0.43936466  0.70803752  0.11647939     0.06400
C1757       C  0.40868504  0.71421500  0.12696333    -0.03600
C1758       C  0.39646894  0.69622693  0.14977831    -0.08000
C1759       C  0.41264139  0.66972284  0.15798137     0.05500
C1760       C  0.43589898  0.65845793  0.13802615    -0.03000
Br1761     Br  0.45484618  0.61952187  0.14346356    -0.02700
H1762       H  0.46805937  0.66977835  0.10264266     0.09400
H1763       H  0.37444762  0.70242573  0.16052727     0.07500
Br1764     Br  0.38097457  0.74065766  0.10428344    -0.03200
C1765       C  0.49779080  0.78148057  0.63581788     0.29400
C1766       C  0.45510420  0.73801475  0.62458102     0.29400
C1767       C  0.46360480  0.79210392  0.63021036    -0.06800
C1768       C  0.50397510  0.76332342  0.60668096    -0.07600
C1769       C  0.49643692  0.75702881  0.65947176    -0.07500
C1770       C  0.44115572  0.77058056  0.62602747    -0.06800
C1771       C  0.48182226  0.74093453  0.60071216    -0.07600
C1772       C  0.47377143  0.73586112  0.65502541    -0.07500
C1773       C  0.41261706  0.78587389  0.63138246    -0.32900
N1774       N  0.41727925  0.81562040  0.63578232     0.13600
C1775       C  0.44868370  0.81910963  0.63404082    -0.32900
H1776       H  0.46088018  0.83871789  0.64065013     0.15600
C1777       C  0.48172296  0.73630998  0.56944972    -0.31800
N1778       N  0.50293421  0.75422943  0.55698758     0.12400
C1779       C  0.51562322  0.77145468  0.57883419    -0.31800
C1780       C  0.48398472  0.71148111  0.67189631    -0.32100
N1781       N  0.51304092  0.71588654  0.68294981     0.12900
H1782       H  0.47206594  0.69118315  0.67529819     0.15500
C1783       C  0.52106960  0.74357276  0.67567896    -0.32100
H1784       H  0.54392184  0.75267656  0.68017362     0.15500
H1785       H  0.53004577  0.79018283  0.57415972     0.15500
H1786       H  0.39085401  0.77561723  0.63601456     0.15600
H1787       H  0.46577310  0.72269639  0.55650896     0.15500
C1788       C  0.95824602  0.99297407  0.62780271     0.29400
C1789       C  0.00190585  0.52923372  0.62464412     0.29400
C1790       C  0.98228607  0.99186908  0.65395978    -0.06800
C1791       C  0.98024071  0.99178409  0.59948352    -0.07600
C1792       C  0.94606948  0.51692358  0.62173970    -0.07500
C1793       C  0.00450787  0.01337383  0.65392777    -0.06800
C1794       C  0.00409915  0.50661440  0.59755953    -0.07600
C1795       C  0.96683217  0.53956998  0.62204678    -0.07500
C1796       C  0.03135609  0.00066584  0.66731211    -0.32900
N1797       N  0.02585395  0.97259629  0.67620567     0.13600
C1798       C  0.99600027  0.96693591  0.66798639    -0.32900
H1799       H  0.98521154  0.94572673  0.67081414     0.15600
C1800       C  0.00828266  0.51346576  0.56723274    -0.31800
N1801       N  0.99049990  0.00418353  0.55128646     0.12400
C1802       C  0.97294029  0.98666216  0.56893114    -0.31800
C1803       C  0.94828383  0.56563839  0.62023523    -0.32100
N1804       N  0.91705848  0.55886163  0.61964595     0.12900
H1805       H  0.95697601  0.58784722  0.62260846     0.15500
C1806       C  0.91649757  0.52879512  0.61738261    -0.32100
H1807       H  0.89608333  0.51549713  0.61657737     0.15500
H1808       H  0.95463983  0.97265077  0.56026003     0.15500
H1809       H  0.05412605  0.01068478  0.66878766     0.15600
H1810       H  0.02159885  0.53164657  0.55864884     0.15500
C1811       C  0.53221830  0.72258972  0.95422759     0.29400
C1812       C  0.48614272  0.76528034  0.94062875     0.29400
C1813       C  0.49847116  0.71140700  0.94817505    -0.06800
C1814       C  0.53211017  0.74448209  0.48159865    -0.07600
C1815       C  0.53815415  0.74185655  0.92589701    -0.07500
C1816       C  0.47503958  0.73332304  0.94312238    -0.06800
C1817       C  0.50806248  0.76717286  0.47642355    -0.07600
C1818       C  0.51448430  0.76315600  0.91930382    -0.07500
C1819       C  0.44905509  0.71988291  0.93113024    -0.32900
N1820       N  0.45717124  0.69151962  0.92424069     0.13600
C1821       C  0.48690390  0.68609165  0.93435447    -0.32900
H1822       H  0.50058795  0.66695117  0.92654876     0.15600
C1823       C  0.49439524  0.77210099  0.50473307    -0.31800
N1824       N  0.51030787  0.75572673  0.52594608     0.12400
C1825       C  0.53250594  0.73842291  0.51234935    -0.31800
C1826       C  0.52818960  0.78666803  0.90512152    -0.32100
N1827       N  0.55937673  0.78123981  0.90297994     0.12900
H1828       H  0.51644454  0.80773224  0.89977133     0.15500
C1829       C  0.56562154  0.75438623  0.91579882    -0.32100
H1830       H  0.58913431  0.74608173  0.92003255     0.15500
H1831       H  0.54536191  0.72026228  0.52346586     0.15500
H1832       H  0.42794787  0.73112550  0.92239219     0.15600
H1833       H  0.47239797  0.78407611  0.50909346     0.15500
C1834       C  0.02334332  0.95627622  0.95185527     0.29400
C1835       C  0.97307715  0.50268306  0.93719313     0.29400
C1836       C  0.99158460  0.94361743  0.94027810    -0.06800
C1837       C  0.01182134  0.97509056  0.97965325    -0.07600
C1838       C  0.02645403  0.48228904  0.92321632    -0.07500
C1839       C  0.96720539  0.96449272  0.93615027    -0.06800
C1840       C  0.98831779  0.50654113  0.96959122    -0.07600
C1841       C  0.00229064  0.50279088  0.91750758    -0.07500
C1842       C  0.94056117  0.94996090  0.92782068    -0.32900
N1843       N  0.94778738  0.92059536  0.92480680     0.13600
C1844       C  0.97884151  0.91654082  0.93206358    -0.32900
H1845       H  0.99121507  0.89547598  0.92937769     0.15600
C1846       C  0.97512251  0.50972577  0.49629829    -0.31800
N1847       N  0.99274636  0.49448058  0.51754805     0.12400
C1848       C  0.01515769  0.98462382  0.50532278    -0.31800
C1849       C  0.01361604  0.52471693  0.89963580    -0.32100
N1850       N  0.04364358  0.51781489  0.89251850     0.12900
H1851       H  0.00096739  0.54489927  0.89265381     0.15500
C1852       C  0.05205264  0.49183390  0.90646157    -0.32100
H1853       H  0.07519716  0.48137525  0.90485025     0.15500
H1854       H  0.03108551  0.96911287  0.51700953     0.15500
H1855       H  0.91852129  0.96074876  0.92094131     0.15600
H1856       H  0.95340583  0.52200171  0.50113476     0.15500
O1857       O  0.68915291  0.87028676  0.75294900    -0.82400
C1858       C  0.56205377  0.90213974  0.76558551     0.96900
O1859       O  0.57798536  0.90909934  0.74202496    -0.71500
O1860       O  0.63422672  0.93171929  0.75010642    -0.75100
Al1861     Al  0.62161573  0.89734782  0.72942073     1.49000
C1862       C  0.65133112  0.93701630  0.77292996     0.92200
O1863       O  0.63977416  0.87574607  0.82446346    -0.81400
O1864       O  0.62353869  0.81574059  0.76031702    -0.74900
Al1865     Al  0.66163128  0.87324987  0.78590304     1.90100
O1866       O  0.60636706  0.84242239  0.81180619    -0.74000
O1867       O  0.57757255  0.84624973  0.73293066    -0.73800
O1868       O  0.57037844  0.88021557  0.78207726    -0.79500
O1869       O  0.60764576  0.86729307  0.70080575    -0.77700
O1870       O  0.62720956  0.87339827  0.76190584    -1.13800
O1871       O  0.66380828  0.88931375  0.71319983    -0.73000
C1872       C  0.68841239  0.87728949  0.72520367     0.97700
C1873       C  0.62122196  0.85594914  0.83191297     0.94100
Al1874     Al  0.59730036  0.84858541  0.77081383     1.55600
O1875       O  0.66394504  0.91593654  0.78822313    -0.77600
C1876       C  0.58442785  0.85166302  0.70593909     0.98300
C1877       C  0.64966606  0.80968782  0.77351070     0.93100
O1878       O  0.66499637  0.82987039  0.78715666    -0.83000
O1879       O  0.68473521  0.61807951  0.81766709    -0.82400
C1880       C  0.56205471  0.60416768  0.82998998     0.96900
O1881       O  0.58573306  0.58658498  0.83528475    -0.71500
O1882       O  0.64670939  0.56904592  0.82960177    -0.75100
Al1883     Al  0.62569038  0.59946924  0.85183441     1.49000
C1884       C  0.64684269  0.56322215  0.80171182     0.92200
O1885       O  0.61427657  0.63430223  0.76218131    -0.81400
O1886       O  0.62776783  0.68865951  0.82360495    -0.74900
Al1887     Al  0.64825501  0.62565748  0.79139496     1.90100
O1888       O  0.58324247  0.66104439  0.79185444    -0.74000
O1889       O  0.60993914  0.66431003  0.87272878    -0.73800
O1890       O  0.56316955  0.63175556  0.83769719    -0.79500
O1891       O  0.60462226  0.61914147  0.88637736    -0.77700
O1892       O  0.62433631  0.62849436  0.82435317    -1.13800
O1893       O  0.66656242  0.61232401  0.86543283    -0.73000
C1894       C  0.68908935  0.61684044  0.84675025     0.97700
C1895       C  0.58957951  0.65048806  0.76614677     0.94100
Al1896     Al  0.59815747  0.65889429  0.83116691     1.55600
O1897       O  0.64179744  0.58415140  0.78329143    -0.77600
C1898       C  0.60414904  0.64630601  0.89323865     0.98300
C1899       C  0.64966418  0.68920810  0.80445602     0.93100
O1900       O  0.65932534  0.66598402  0.79098572    -0.83000
O1901       O  0.31262602  0.87503873  0.82085351    -0.82400
C1902       C  0.43898015  0.90130978  0.80393927     0.96900
O1903       O  0.42502787  0.90627280  0.82943211    -0.71500
O1904       O  0.37103628  0.93572258  0.82410483    -0.75100
Al1905     Al  0.38099373  0.89894770  0.84179570     1.49000
C1906       C  0.34918352  0.94407141  0.80636832     0.92200
O1907       O  0.35561159  0.89077800  0.74886592    -0.81400
O1908       O  0.37514513  0.82071256  0.80184273    -0.74900
Al1909     Al  0.33650542  0.88269371  0.78706372     1.90100
O1910       O  0.38899328  0.85303686  0.75179093    -0.74000
O1911       O  0.42256707  0.84338268  0.83209892    -0.73800
O1912       O  0.42875407  0.88237975  0.78529260    -0.79500
O1913       O  0.39230995  0.86473541  0.86594330    -0.77700
O1914       O  0.37276580  0.87832542  0.80777152    -1.13800
O1915       O  0.33845271  0.89585686  0.85872689    -0.73000
C1916       C  0.31399348  0.88375436  0.84803011     0.97700
C1917       C  0.37265201  0.87119616  0.73600028     0.94100
Al1918     Al  0.40145967  0.85226809  0.79403619     1.55600
O1919       O  0.33242627  0.92532663  0.79266245    -0.77600
C1920       C  0.41323335  0.84548007  0.85926370     0.98300
C1921       C  0.34978168  0.81779588  0.78714997     0.93100
O1922       O  0.33373337  0.84032798  0.77760959    -0.83000
O1923       O  0.32301905  0.63363948  0.74377003    -0.82400
C1924       C  0.45108738  0.60644006  0.75664506     0.96900
O1925       O  0.43502738  0.59359656  0.73551853    -0.71500
O1926       O  0.38238314  0.57015512  0.75144818    -0.75100
Al1927     Al  0.38938626  0.60048785  0.72348212     1.49000
C1928       C  0.36139883  0.56795398  0.77105065     0.92200
O1929       O  0.37913761  0.63338457  0.81044226    -0.81400
O1930       O  0.38196353  0.68779210  0.73862799    -0.74900
Al1931     Al  0.35220911  0.63321073  0.77540381     1.90100
O1932       O  0.40719208  0.66921929  0.79269605    -0.74000
O1933       O  0.42656898  0.65713997  0.70964026    -0.73800
O1934       O  0.44415406  0.63268931  0.76461459    -0.79500
O1935       O  0.39569231  0.62541964  0.68884615    -0.77700
O1936       O  0.38456707  0.63045419  0.74982173    -1.13800
O1937       O  0.34468449  0.60249587  0.71019199    -0.73000
C1938       C  0.32134160  0.61867702  0.71948273     0.97700
C1939       C  0.39876990  0.65346602  0.81463095     0.94100
Al1940     Al  0.41261418  0.65905329  0.75099749     1.55600
O1941       O  0.34741472  0.59096590  0.78151912    -0.77600
C1942       C  0.41322005  0.64701107  0.68630989     0.98300
C1943       C  0.35988419  0.69545641  0.75636932     0.93100
O1944       O  0.34864016  0.67646968  0.77434554    -0.83000
O1945       O  0.18767967  0.85785559  0.81559232    -0.82400
C1946       C  0.06461964  0.85927441  0.82142330     0.96900
O1947       O  0.08460236  0.83772334  0.82659004    -0.71500
O1948       O  0.14455024  0.81221226  0.82460951    -0.75100
Al1949     Al  0.12516187  0.84456305  0.84607803     1.49000
C1950       C  0.14330058  0.80645952  0.79675312     0.92200
O1951       O  0.12053584  0.88251560  0.75798398    -0.81400
O1952       O  0.14281082  0.93283164  0.82359241    -0.74900
Al1953     Al  0.15285680  0.86919105  0.78774876     1.90100
O1954       O  0.09570493  0.91416947  0.78830736    -0.74000
O1955       O  0.11793778  0.90874307  0.87112263    -0.73800
O1956       O  0.06966108  0.88545231  0.83198111    -0.79500
O1957       O  0.10401194  0.86436693  0.87966683    -0.77700
O1958       O  0.12904588  0.87430746  0.82020625    -1.13800
O1959       O  0.16602918  0.85355699  0.86230349    -0.73000
C1960       C  0.18978502  0.85791804  0.84508170     0.97700
C1961       C  0.10110806  0.90434496  0.76200454     0.94100
Al1962     Al  0.10808845  0.90757657  0.82826885     1.55600
O1963       O  0.14079788  0.82811361  0.77857866    -0.77600
C1964       C  0.10635093  0.89057504  0.88893690     0.98300
C1965       C  0.16303998  0.93222962  0.80263859     0.93100
O1966       O  0.16892612  0.90852699  0.78790811    -0.83000
O1967       O  0.18971285  0.62421923  0.74709795    -0.82400
C1968       C  0.06593659  0.63273997  0.74054206     0.96900
O1969       O  0.08687049  0.65169446  0.73499197    -0.71500
O1970       O  0.14592393  0.67268379  0.73696826    -0.75100
Al1971     Al  0.12645540  0.64086922  0.71644809     1.49000
C1972       C  0.14551233  0.67900335  0.76473794     0.92200
O1973       O  0.12493747  0.60598751  0.80585545    -0.81400
O1974       O  0.14360824  0.55175908  0.74162443    -0.74900
Al1975     Al  0.15603312  0.61578330  0.77539865     1.90100
O1976       O  0.09893457  0.57462868  0.77758906    -0.74000
O1977       O  0.11608250  0.57651636  0.69425523    -0.73800
O1978       O  0.07061739  0.60481796  0.73507129    -0.79500
O1979       O  0.10318382  0.62163619  0.68414201    -0.77700
O1980       O  0.13080966  0.61158948  0.74351685    -1.13800
O1981       O  0.16703574  0.62920035  0.70030676    -0.73000
C1982       C  0.19145283  0.62540376  0.71772873     0.97700
C1983       C  0.10445435  0.58618762  0.80301365     0.94100
Al1984     Al  0.10899774  0.57956886  0.73734177     1.55600
O1985       O  0.14475768  0.65784103  0.78349203    -0.77600
C1986       C  0.10216092  0.59472085  0.67702720     0.98300
C1987       C  0.16425324  0.55128561  0.76267519     0.93100
O1988       O  0.17136919  0.57507243  0.77618924    -0.83000
O1989       O  0.81459528  0.87814153  0.74593643    -0.82400
C1990       C  0.94660730  0.86170537  0.75662058     0.96900
O1991       O  0.93093976  0.85074366  0.73432851    -0.71500
O1992       O  0.88304607  0.81758015  0.74933420    -0.75100
Al1993     Al  0.88437496  0.85210434  0.72577935     1.49000
C1994       C  0.85961789  0.80873422  0.76350347     0.92200
O1995       O  0.86427514  0.86170597  0.81567280    -0.81400
O1996       O  0.86607754  0.93355571  0.76207889    -0.74900
Al1997     Al  0.84039360  0.87008672  0.77959558     1.90100
O1998       O  0.89246265  0.90157996  0.81123227    -0.74000
O1999       O  0.91131237  0.91438865  0.72715613    -0.73800
O2000       O  0.93371948  0.88016299  0.77443756    -0.79500
O2001       O  0.88705239  0.88345195  0.69713669    -0.77700
O2002       O  0.87475678  0.87559678  0.75752865    -1.13800
O2003       O  0.83964772  0.84974699  0.71200716    -0.73000
C2004       C  0.81508097  0.86467093  0.72065727     0.97700
C2005       C  0.88299963  0.88006176  0.82691656     0.94100
Al2006     Al  0.89891225  0.90503908  0.76778941     1.55600
O2007       O  0.83896501  0.82742201  0.77286386    -0.77600
C2008       C  0.90196888  0.90678436  0.70079711     0.98300
C2009       C  0.84241081  0.93511365  0.77896457     0.93100
O2010       O  0.83275020  0.91186404  0.79158280    -0.83000
O2011       O  0.81329713  0.61891790  0.80975464    -0.82400
C2012       C  0.94279955  0.62935319  0.78963195     0.96900
O2013       O  0.92974807  0.63935993  0.81410708    -0.71500
O2014       O  0.87952703  0.67346499  0.80372371    -0.75100
Al2015     Al  0.88464737  0.63873506  0.82691784     1.49000
C2016       C  0.85766408  0.68214223  0.78609708     0.92200
O2017       O  0.85737818  0.62464161  0.73661589    -0.81400
O2018       O  0.86745789  0.55790093  0.79628434    -0.74900
Al2019     Al  0.83722410  0.62138827  0.77507421     1.90100
O2020       O  0.88564709  0.58362315  0.74250495    -0.74000
O2021       O  0.91696037  0.57730310  0.82487778    -0.73800
O2022       O  0.93019458  0.60911717  0.77426599    -0.79500
O2023       O  0.89154529  0.60706019  0.85585828    -0.77700
O2024       O  0.87330475  0.61525297  0.79593439    -1.13800
O2025       O  0.84173544  0.64234051  0.84404433    -0.73000
C2026       C  0.81618009  0.63041423  0.83571853     0.97700
C2027       C  0.87253344  0.60297434  0.72520138     0.94100
Al2028     Al  0.89805702  0.58461680  0.78540327     1.55600
O2029       O  0.83721912  0.66438090  0.77676361    -0.77600
C2030       C  0.90868051  0.58413192  0.85174782     0.98300
C2031       C  0.84056277  0.55662318  0.78405629     0.93100
O2032       O  0.82870230  0.57888044  0.76962838    -0.83000
C2033       C  0.88412658  0.75796923  0.76325286    -0.09800
C2034       C  0.85710344  0.77615226  0.76843699     0.06400
C2035       C  0.82899483  0.76236075  0.77682597    -0.03600
C2036       C  0.82896251  0.73135412  0.78079115    -0.08000
C2037       C  0.85653026  0.71372904  0.77695627     0.05500
C2038       C  0.88403267  0.72731273  0.76738275    -0.03000
Br2039     Br  0.92218507  0.70502511  0.75866468    -0.02700
H2040       H  0.90586713  0.76760604  0.75616938     0.09400
H2041       H  0.80756199  0.72111362  0.78780406     0.07500
Br2042     Br  0.78982799  0.78401047  0.78293743    -0.03200
C2043       C  0.81770095  0.98291217  0.76171529    -0.09800
C2044       C  0.82911958  0.96504789  0.78591181     0.06400
C2045       C  0.83635746  0.97870722  0.81400293    -0.03600
C2046       C  0.83004019  0.51108137  0.81260727    -0.08000
C2047       C  0.82512232  0.52767594  0.78576810     0.05500
C2048       C  0.81399006  0.51299624  0.75949118    -0.03000
Br2049     Br  0.79919773  0.53398161  0.72399306    -0.02700
H2050       H  0.81173457  0.97273285  0.74003222     0.09400
H2051       H  0.83753472  0.52208380  0.83344043     0.07500
Br2052     Br  0.85267681  0.95675709  0.84827463    -0.03200
C2053       C  0.99935856  0.64511914  0.79707295    -0.09800
C2054       C  0.97346673  0.63980793  0.77773013     0.06400
C2055       C  0.97871750  0.63967454  0.74578859    -0.03600
C2056       C  0.00889208  0.64091933  0.73396626    -0.08000
C2057       C  0.03498188  0.64242018  0.75317819     0.05500
C2058       C  0.03000307  0.64667332  0.78490966    -0.03000
Br2059     Br  0.06444512  0.65293507  0.81245227    -0.02700
H2060       H  0.99622243  0.64596708  0.82160430     0.09400
H2061       H  0.01204116  0.63905730  0.70952180     0.07500
Br2062     Br  0.94609332  0.63591161  0.71629720    -0.03200
C2063       C  0.02544873  0.88186169  0.78520253    -0.09800
C2064       C  0.03645364  0.85606612  0.80049521     0.06400
C2065       C  0.02115417  0.82922995  0.79367760    -0.03600
C2066       C  0.99318823  0.82976327  0.77547398    -0.08000
C2067       C  0.98103063  0.85649904  0.76257585     0.05500
C2068       C  0.99911049  0.88202891  0.76594454    -0.03000
Br2069     Br  0.98701892  0.91916788  0.74694775    -0.02700
H2070       H  0.03706878  0.90265315  0.78848009     0.09400
H2071       H  0.97975141  0.80982063  0.77342422     0.07500
Br2072     Br  0.03581320  0.79188191  0.81023592    -0.03200
C2073       C  0.12928278  0.73240657  0.75462475    -0.09800
C2074       C  0.14505771  0.71141068  0.77382716     0.06400
C2075       C  0.16092537  0.72232767  0.79982259    -0.03600
C2076       C  0.16061500  0.75314513  0.80613693    -0.08000
C2077       C  0.14476675  0.77418195  0.78699837     0.05500
C2078       C  0.12877999  0.76321997  0.76103437    -0.03000
Br2079     Br  0.10387754  0.78889161  0.73475869    -0.02700
H2080       H  0.11667412  0.72472448  0.73457901     0.09400
H2081       H  0.17307873  0.76074297  0.82630273     0.07500
Br2082     Br  0.18498120  0.69641160  0.82650953    -0.03200
C2083       C  0.18200913  0.98292506  0.81469911    -0.09800
C2084       C  0.17648353  0.96074817  0.79276338     0.06400
C2085       C  0.17637943  0.96881809  0.76148430    -0.03600
C2086       C  0.17897462  0.49764005  0.75388119    -0.08000
C2087       C  0.17679063  0.52191228  0.77413632     0.05500
C2088       C  0.17956637  0.51605536  0.80589967    -0.03000
Br2089     Br  0.18104939  0.54680703  0.83638423    -0.02700
H2090       H  0.18279852  0.97715551  0.83872095     0.09400
H2091       H  0.17780967  0.50150098  0.72946030     0.07500
Br2092     Br  0.16958159  0.94097278  0.72877583    -0.03200
C2093       C  0.24043224  0.64901386  0.70268665    -0.09800
C2094       C  0.22340522  0.62306581  0.70471344     0.06400
C2095       C  0.23971672  0.59530933  0.70248806    -0.03600
C2096       C  0.27283775  0.59383590  0.70221291    -0.08000
C2097       C  0.29000625  0.61988630  0.70421251     0.05500
C2098       C  0.27338710  0.64762775  0.70220438    -0.03000
Br2099     Br  0.29476463  0.68455848  0.70331779    -0.02700
H2100       H  0.22825596  0.67050146  0.70441752     0.09400
H2101       H  0.28499284  0.57236080  0.70395596     0.07500
Br2102     Br  0.21771092  0.55889280  0.70316275    -0.03200
C2103       C  0.22928086  0.89551897  0.85700584    -0.09800
C2104       C  0.22050894  0.86577050  0.85873509     0.06400
C2105       C  0.24324850  0.84410211  0.86781461    -0.03600
C2106       C  0.27499414  0.85169512  0.87084392    -0.08000
C2107       C  0.28443185  0.88081702  0.86498073     0.05500
C2108       C  0.26083228  0.90317422  0.86054590    -0.03000
Br2109     Br  0.27145215  0.94355583  0.85294245    -0.02700
H2110       H  0.21194241  0.91255016  0.85036601     0.09400
H2111       H  0.29273675  0.83408889  0.87394613     0.07500
Br2112     Br  0.23243598  0.80342653  0.87248792    -0.03200
C2113       C  0.35949618  0.77930666  0.74912017    -0.09800
C2114       C  0.34360138  0.78798339  0.77567739     0.06400
C2115       C  0.32959783  0.76649416  0.79355941    -0.03600
C2116       C  0.33239681  0.73648072  0.78501199    -0.08000
C2117       C  0.35033401  0.72737227  0.75940917     0.05500
C2118       C  0.36312017  0.74952905  0.74077703    -0.03000
Br2119     Br  0.38865137  0.74183990  0.70537799    -0.02700
H2120       H  0.37150003  0.79572812  0.73598151     0.09400
H2121       H  0.32261849  0.72012406  0.79992602     0.07500
Br2122     Br  0.30961198  0.77690821  0.83134821    -0.03200
C2123       C  0.34120616  0.98582752  0.77027186    -0.09800
C2124       C  0.34497793  0.97630842  0.80050485     0.06400
C2125       C  0.34948562  0.99778216  0.82382676    -0.03600
C2126       C  0.35376506  0.52952951  0.81121968    -0.08000
C2127       C  0.35278471  0.53765639  0.78036768     0.05500
C2128       C  0.34591885  0.51577179  0.75812049    -0.03000
Br2129     Br  0.34243748  0.52477486  0.71534000    -0.02700
H2130       H  0.33762915  0.96972054  0.75214564     0.09400
H2131       H  0.35875813  0.54606653  0.82855754     0.07500
Br2132     Br  0.35221972  0.98727922  0.86627043    -0.03200
C2133       C  0.50769112  0.58765197  0.76180283    -0.09800
C2134       C  0.47786560  0.59212316  0.77462342     0.06400
C2135       C  0.47628303  0.59235483  0.80700738    -0.03600
C2136       C  0.50363284  0.59500632  0.82533521    -0.08000
C2137       C  0.53364984  0.59361634  0.81227774     0.05500
C2138       C  0.53511609  0.58670058  0.78049558    -0.03000
Br2139     Br  0.57368273  0.57659998  0.76081242    -0.02700
H2140       H  0.50990353  0.58647025  0.73717326     0.09400
H2141       H  0.50136644  0.59847696  0.84975286     0.07500
Br2142     Br  0.43695402  0.58796077  0.82697945    -0.03200
C2143       C  0.73352297  0.65004143  0.85493998    -0.09800
C2144       C  0.72167696  0.62147533  0.85774692     0.06400
C2145       C  0.74312209  0.59733058  0.86205996    -0.03600
C2146       C  0.77567694  0.60174051  0.86079429    -0.08000
C2147       C  0.78745124  0.62994578  0.85448888     0.05500
C2148       C  0.76600556  0.65445186  0.85333883    -0.03000
Br2149     Br  0.77958749  0.69333970  0.84329229    -0.02700
H2150       H  0.71731275  0.66853702  0.85063311     0.09400
H2151       H  0.79162033  0.58242262  0.86065911     0.07500
Br2152     Br  0.72897860  0.55739503  0.86420665    -0.03200
C2153       C  0.52482090  0.92006438  0.80530483    -0.09800
C2154       C  0.53155293  0.91702800  0.77389333     0.06400
C2155       C  0.50625250  0.91848887  0.75289982    -0.03600
C2156       C  0.47531091  0.91755604  0.76361949    -0.08000
C2157       C  0.46891403  0.91525832  0.79515478     0.05500
C2158       C  0.49384570  0.91925299  0.81607396    -0.03000
Br2159     Br  0.48785776  0.91912766  0.85946476    -0.02700
H2160       H  0.54402292  0.91968222  0.82179586     0.09400
H2161       H  0.45635805  0.91559491  0.74702043     0.07500
Br2162     Br  0.51255388  0.91682610  0.70953944    -0.03200
C2163       C  0.73612653  0.89599481  0.70030950    -0.09800
C2164       C  0.71815127  0.87169968  0.70821109     0.06400
C2165       C  0.73326380  0.84321540  0.70928010    -0.03600
C2166       C  0.76613435  0.84006614  0.70696257    -0.08000
C2167       C  0.78455215  0.86508678  0.70399001     0.05500
C2168       C  0.76906993  0.89280703  0.69814188    -0.03000
Br2169     Br  0.79271077  0.92781251  0.69231427    -0.02700
H2170       H  0.72514896  0.91806185  0.69947675     0.09400
H2171       H  0.77744521  0.81862995  0.71177280     0.07500
Br2172     Br  0.71045894  0.80840111  0.71828336    -0.03200
C2173       C  0.64882192  0.72671952  0.76441090    -0.09800
C2174       C  0.65983104  0.71804266  0.79342959     0.06400
C2175       C  0.67518298  0.73868688  0.81205918    -0.03600
C2176       C  0.67552559  0.76852394  0.80315123    -0.08000
C2177       C  0.65990356  0.77806349  0.77623941     0.05500
C2178       C  0.64875529  0.75645762  0.75563183    -0.03000
Br2179     Br  0.63161311  0.76621420  0.71592238    -0.02700
H2180       H  0.63786132  0.71068707  0.74944750     0.09400
H2181       H  0.68569386  0.78456109  0.81856821     0.07500
Br2182     Br  0.69437361  0.72762092  0.85031101    -0.03200
C2183       C  0.65695244  0.99008109  0.75804204    -0.09800
C2184       C  0.65576060  0.96871002  0.78140059     0.06400
C2185       C  0.65569858  0.97859858  0.81198441    -0.03600
C2186       C  0.65650568  0.51003051  0.81534328    -0.08000
C2187       C  0.65210993  0.53149844  0.79211877     0.05500
C2188       C  0.65151217  0.52151120  0.76140707    -0.03000
Br2189     Br  0.64748847  0.54779887  0.72707737    -0.02700
H2190       H  0.65736102  0.98288803  0.73435303     0.09400
H2191       H  0.65727441  0.51677111  0.83915018     0.07500
Br2192     Br  0.65233192  0.95196613  0.84583820    -0.03200
C2193       C  0.04502962  0.54157949  0.84336995    -0.09800
C2194       C  0.06052655  0.53465189  0.87079746     0.06400
C2195       C  0.08912115  0.54826482  0.87785045    -0.03600
C2196       C  0.10213630  0.56776944  0.85677702    -0.08000
C2197       C  0.08694777  0.57375434  0.82868184     0.05500
C2198       C  0.05735933  0.56112189  0.82275785    -0.03000
Br2199     Br  0.03172338  0.56894112  0.78698218    -0.02700
H2200       H  0.02254588  0.53192334  0.83824689     0.09400
H2201       H  0.12462637  0.57732201  0.86186059     0.07500
Br2202     Br  0.11068752  0.54160779  0.91587945    -0.03200
C2203       C  0.04707037  0.90338657  0.95211842    -0.09800
C2204       C  0.05141302  0.93379702  0.95677210     0.06400
C2205       C  0.08251446  0.94285114  0.95318204    -0.03600
C2206       C  0.10221060  0.92740740  0.93234082    -0.08000
C2207       C  0.09221537  0.90096363  0.91838111     0.05500
C2208       C  0.06580316  0.88737574  0.93108476    -0.03000
Br2209     Br  0.05105875  0.84941973  0.91800420    -0.02700
H2210       H  0.02737973  0.89299204  0.96246733     0.09400
H2211       H  0.12422555  0.93687974  0.92585133     0.07500
Br2212     Br  0.09740230  0.97684525  0.97486549    -0.03200
C2213       C  0.87878668  0.89243895  0.88182889    -0.09800
C2214       C  0.89476377  0.87720414  0.85841602     0.06400
C2215       C  0.92613545  0.86779022  0.86330508    -0.03600
C2216       C  0.94324360  0.87972648  0.88751477    -0.08000
C2217       C  0.92871328  0.89999565  0.90798417     0.05500
C2218       C  0.89546623  0.90324336  0.90711164    -0.03000
Br2219     Br  0.87192434  0.92275066  0.93908514    -0.02700
H2220       H  0.85391347  0.89799453  0.87929635     0.09400
H2221       H  0.96834023  0.87506208  0.88842147     0.07500
Br2222     Br  0.94679820  0.84030305  0.83615668    -0.03200
C2223       C  0.92503584  0.53415755  0.86906939    -0.09800
C2224       C  0.91884508  0.56369182  0.87734689     0.06400
C2225       C  0.92477591  0.57206438  0.90820739    -0.03600
C2226       C  0.93926871  0.55141432  0.92900308    -0.08000
C2227       C  0.94834335  0.52236058  0.91950069     0.05500
C2228       C  0.94016202  0.51406371  0.88868087    -0.03000
Br2229     Br  0.96196195  0.97929953  0.86741350    -0.02700
H2230       H  0.92007382  0.52691959  0.84586639     0.09400
H2231       H  0.94560741  0.55884706  0.95175643     0.07500
Br2232     Br  0.91610095  0.61179666  0.92246586    -0.03200
C2233       C  0.57544685  0.83319224  0.89660444    -0.09800
C2234       C  0.58198413  0.80238459  0.89318156     0.06400
C2235       C  0.60946873  0.79310796  0.87759362    -0.03600
C2236       C  0.62868587  0.81421908  0.86489764    -0.08000
C2237       C  0.61842749  0.84411498  0.86286011     0.05500
C2238       C  0.59293776  0.85392972  0.88083654    -0.03000
Br2239     Br  0.57829669  0.89463185  0.88020146    -0.02700
H2240       H  0.55517733  0.84110265  0.90941508     0.09400
H2241       H  0.64794019  0.80636469  0.85070277     0.07500
Br2242     Br  0.61767969  0.75258623  0.86562099    -0.03200
C2243       C  0.44500852  0.66785696  0.84377238    -0.09800
C2244       C  0.41381145  0.65881860  0.84435058     0.06400
C2245       C  0.39790373  0.65794128  0.87235255    -0.03600
C2246       C  0.41325845  0.66707927  0.89912280    -0.08000
C2247       C  0.44408531  0.67716835  0.89810296     0.05500
C2248       C  0.46000090  0.67753800  0.87002021    -0.03000
Br2249     Br  0.50040040  0.69482095  0.86486221    -0.02700
H2250       H  0.45738340  0.66881509  0.82232953     0.09400
H2251       H  0.40071096  0.66776379  0.92054216     0.07500
Br2252     Br  0.35455437  0.64788534  0.87479514    -0.03200
C2253       C  0.43771225  0.83583139  0.91135015    -0.09800
C2254       C  0.42732756  0.82508733  0.88277114     0.06400
C2255       C  0.43363374  0.79507327  0.87559405    -0.03600
C2256       C  0.45105976  0.77715524  0.89565450    -0.08000
C2257       C  0.46191974  0.78700476  0.92462028     0.05500
C2258       C  0.45545680  0.81748227  0.93191875    -0.03000
Br2259     Br  0.47434485  0.83767135  0.96569810    -0.02700
H2260       H  0.43395991  0.85919856  0.91676494     0.09400
H2261       H  0.45812211  0.75535839  0.88711890     0.07500
Br2262     Br  0.41977179  0.77642653  0.83839258    -0.03200
C2263       C  0.60720686  0.68424221  0.93539821    -0.09800
C2264       C  0.59384447  0.65821709  0.92356968     0.06400
C2265       C  0.56676953  0.64811658  0.93813980    -0.03600
C2266       C  0.55027285  0.66738802  0.95827945    -0.08000
C2267       C  0.55797115  0.69755705  0.96011688     0.05500
C2268       C  0.59004365  0.70274152  0.95581453    -0.03000
Br2269     Br  0.61020691  0.73449957  0.97703014    -0.02700
H2270       H  0.62998387  0.69094381  0.92761793     0.09400
H2271       H  0.52900637  0.65997260  0.96870295     0.07500
Br2272     Br  0.54839004  0.61096484  0.92781406    -0.03200
C2273       C  0.05681639  0.54955087  0.61800229    -0.09800
C2274       C  0.02602767  0.55339915  0.62975504     0.06400
C2275       C  0.02172014  0.57405805  0.65425615    -0.03600
C2276       C  0.04655528  0.59083288  0.66468337    -0.08000
C2277       C  0.07737645  0.58452594  0.65557350     0.05500
C2278       C  0.08252029  0.56392513  0.63165539    -0.03000
Br2279     Br  0.12426734  0.55343415  0.61857161    -0.02700
H2280       H  0.06170493  0.53272759  0.60078142     0.09400
H2281       H  0.04246966  0.60574383  0.68370327     0.07500
Br2282     Br  0.98649163  0.57471476  0.68162534    -0.03200
C2283       C  0.06109689  0.96834884  0.71973951    -0.09800
C2284       C  0.04672344  0.95448124  0.69504643     0.06400
C2285       C  0.05246798  0.92357732  0.69038734    -0.03600
C2286       C  0.07165749  0.90718224  0.71132380    -0.08000
C2287       C  0.08491632  0.92124958  0.73696765     0.05500
C2288       C  0.07970343  0.95247909  0.74049938    -0.03000
Br2289     Br  0.09618575  0.97625719  0.77334013    -0.02700
H2290       H  0.05683670  0.99195495  0.72353295     0.09400
H2291       H  0.07526712  0.88342937  0.70815501     0.07500
Br2292     Br  0.03563852  0.90306585  0.65565944    -0.03200
C2293       C  0.89726456  0.60644784  0.64276350    -0.09800
C2294       C  0.89217285  0.57660385  0.63440378     0.06400
C2295       C  0.86842907  0.56228175  0.65072575    -0.03600
C2296       C  0.86253730  0.57105875  0.68068542    -0.08000
C2297       C  0.87306531  0.59807930  0.69175350     0.05500
C2298       C  0.88530790  0.61798871  0.67050760    -0.03000
Br2299     Br  0.88384935  0.66019388  0.67717207    -0.02700
H2300       H  0.91163580  0.62015495  0.62869670     0.09400
H2301       H  0.84938109  0.55695571  0.69522384     0.07500
Br2302     Br  0.84084304  0.53362290  0.63324255    -0.03200
C2303       C  0.93408790  0.94165651  0.62854692    -0.09800
C2304       C  0.93288365  0.97172707  0.63793354     0.06400
C2305       C  0.91568771  0.97900461  0.66529893    -0.03600
C2306       C  0.90153959  0.95714200  0.68180285    -0.08000
C2307       C  0.90718106  0.92730534  0.67517555     0.05500
C2308       C  0.92215091  0.91933605  0.64748074    -0.03000
Br2309     Br  0.93084168  0.87853349  0.63703259    -0.02700
H2310       H  0.94792982  0.93509123  0.60885140     0.09000
H2311       H  0.88978162  0.96331448  0.70293914     0.07500
Br2312     Br  0.91859216  0.51034437  0.68602460    -0.03200
C2313       C  0.57908648  0.66602763  0.71215904    -0.09800
C2314       C  0.56755709  0.65964188  0.74130285     0.06400
C2315       C  0.53606130  0.66872959  0.74839294    -0.03600
C2316       C  0.51828513  0.68577098  0.72798740    -0.08000
C2317       C  0.53101700  0.69486239  0.70072350     0.05500
C2318       C  0.56090011  0.68371293  0.69180702    -0.03000
Br2319     Br  0.57719930  0.69209196  0.65224864    -0.02700
H2320       H  0.60288978  0.65918785  0.70608086     0.09400
H2321       H  0.49486374  0.69374596  0.73424716     0.07500
Br2322     Br  0.51575721  0.66247423  0.78659060    -0.03200
C2323       C  0.36866403  0.82742868  0.66504390    -0.09800
C2324       C  0.39611862  0.83703237  0.65094483     0.06400
C2325       C  0.40554210  0.86634998  0.65807477    -0.03600
C2326       C  0.39534910  0.87999052  0.68523832    -0.08000
C2327       C  0.37234053  0.86693469  0.70270107     0.05500
C2328       C  0.35608705  0.84299805  0.69009439    -0.03000
Br2329     Br  0.31753016  0.83025542  0.70717884    -0.02700
H2330       H  0.35793487  0.80700208  0.65817418     0.09400
H2331       H  0.40634222  0.89997209  0.69334925     0.07500
Br2332     Br  0.43027953  0.88963056  0.63128651    -0.03200
C2333       C  0.54984438  0.80975963  0.63767023    -0.09800
C2334       C  0.51925373  0.80537659  0.64887696     0.06400
C2335       C  0.51070404  0.81992942  0.67678326    -0.03600
C2336       C  0.53145745  0.83830595  0.69149413    -0.08000
C2337       C  0.56263386  0.84033799  0.68215242     0.05500
C2338       C  0.57167142  0.82672614  0.65435342    -0.03000
Br2339     Br  0.61405824  0.82785558  0.64016166    -0.02700
H2340       H  0.55802348  0.79790322  0.61762148     0.09400
H2341       H  0.52399040  0.84859491  0.71282397     0.07500
Br2342     Br  0.47400534  0.81197854  0.70092080    -0.03200
C2343       C  0.45231614  0.68231310  0.61953848    -0.09800
C2344       C  0.43519239  0.70992169  0.61996736     0.06400
C2345       C  0.40380006  0.70882087  0.62989267    -0.03600
C2346       C  0.39517286  0.68594375  0.64954503    -0.08000
C2347       C  0.41660875  0.66259584  0.65678741     0.05500
C2348       C  0.44375828  0.65901888  0.63886267    -0.03000
Br2349     Br  0.47370466  0.62696892  0.64621207    -0.02700
H2350       H  0.47578013  0.68116869  0.61012101     0.09400
H2351       H  0.37202714  0.68677701  0.65970524     0.07500
Br2352     Br  0.37047900  0.72865433  0.60745145    -0.03200
loop_ 
_geom_bond_atom_site_label_1 
_geom_bond_atom_site_label_2 
_geom_bond_distance 
_geom_bond_site_symmetry_2 
_ccdc_geom_bond_type 
C1            C3   1.521       .  S
C1            C5   1.541       .  S
C1            C4   1.545       .  S
C1          C570   1.556       .  S
C2            C6   1.544       .  S
C2            C8   1.558       .  S
C2            C7   1.544       .  S
C2          C580   1.552       .  S
C3           C11   1.365       .  A
C3            C6   1.387       .  A
C4           C15   1.382       .  A
C4            C7   1.423       .  A
C5           C19   1.377       .  A
C5            C8   1.408       .  A
C6            C9   1.398       .  A
C7           C13   1.375       .  A
C8           C16   1.385       .  A
C9           N10   1.355       .  A
C9           H22   1.079       .  S
N10          C11   1.334       .  A
N10         C560   1.430       .  S
C11          H12   1.083       .  S
C13          N14   1.349       .  A
C13          H23   1.083       .  S
N14          C15   1.350       .  A
N14          N60   1.399       .  S
C15          H21   1.082       .  S
C16          N17   1.350       .  A
C16          H18   1.080       .  S
N17          C19   1.352       .  A
N17         C553   1.438       .  S
C19          H20   1.082       .  S
C24          C26   1.523       .  S
C24          C27   1.557       .  S
C24         C540   1.536       .  S
C24        C1204   1.519       .  S
C25          C31   1.558   1_455  S
C25          C30   1.563       .  S
C25         C510   1.538       .  S
C25        C1205   1.529       .  S
C26          C34   1.384   1_655  A
C26          C29   1.380   1_655  A
C27          C38   1.389       .  A
C27        C1206   1.441   1_655  A
C28        C1200   1.517   1_545  S
C28          C42   1.357       .  A
C28          C31   1.372       .  A
C29        C1201   1.531       .  S
C29          C32   1.391       .  A
C30          C36   1.382       .  A
C30        C1203   1.442   1_445  A
C31          C39   1.398       .  A
C32          N33   1.354       .  A
C32          H45   1.082       .  S
N33          C34   1.345       .  A
N33         C520   1.438       .  S
C34          H35   1.082   1_455  S
C36        N1213   1.350   1_445  A
C36          H46   1.082       .  S
N37          C38   1.355       .  A
N37        C1212   1.349   1_655  A
N37        N1259   1.406       .  S
C38          H44   1.082       .  S
C39          N40   1.374       .  A
C39          H41   1.081       .  S
N40          C42   1.355       .  A
N40         C530   1.460       .  S
C42          H43   1.068       .  S
C47          C49   1.534       .  S
C47          C51   1.558       .  S
C47         C503   1.557       .  S
C47         C638   1.527       .  S
C48          C52   1.526       .  S
C48          C54   1.555       .  S
C48         C493   1.551       .  S
C48         C641   1.533       .  S
C49          C57   1.370       .  A
C49          C52   1.379       .  A
C50         C635   1.535       .  S
C50          C61   1.368   1_556  A
C50          C53   1.424       .  A
C51          C65   1.377       .  A
C51          C54   1.434       .  A
C52          C55   1.379       .  A
C53         C636   1.555       .  S
C53          C59   1.383   1_556  A
C54          C62   1.386       .  A
C55          N56   1.351       .  A
C55          H68   1.081       .  S
N56          C57   1.347       .  A
N56         C483   1.427       .  S
C57          H58   1.076       .  S
C59          N60   1.354       .  A
C59          H69   1.081       .  S
N60          C61   1.349       .  A
C61          H67   1.082       .  S
C62          N63   1.346       .  A
C62          H64   1.080       .  S
N63          C65   1.344       .  A
N63         C470   1.433       .  S
C65          H66   1.074       .  S
C70          C72   1.564   1_455  S
C70          C73   1.543       .  S
C70         C440   1.541       .  S
C70        C1250   1.547       .  S
C71          C77   1.521       .  S
C71          C76   1.559       .  S
C71         C463   1.548       .  S
C71        C1251   1.522   1_545  S
C72          C80   1.394       .  A
C72          C75   1.386       .  A
C73         C672   1.370       .  A
C73        C1252   1.432   1_455  A
C74        C1246   1.547       .  S
C74          C88   1.400       .  A
C74          C77   1.385   1_465  A
C75        C1247   1.521       .  S
C75          C78   1.366       .  A
C76        C1249   1.430   1_645  A
C76         C670   1.394       .  A
C77          C85   1.371   1_655  A
C78          N79   1.353       .  A
C78          H91   1.080       .  S
N79          C80   1.365       .  A
N79         C453   1.448       .  S
C80          H81   1.075       .  S
C82         C664   1.388   1_544  A
C82          N83   1.365   1_545  A
C82          H92   1.082       .  S
N83        C1260   1.354   1_655  A
N83        N1213   1.408       .  S
C84         C661   1.370   1_554  A
C84        N1259   1.347   1_455  A
C84          H90   1.082       .  S
C85          N86   1.341       .  A
C85          H87   1.083   1_455  S
N86          C88   1.356   1_545  A
N86         C430   1.433       .  S
C88          H89   1.079       .  S
O93         C108   1.254       .  A
O93        Al101   1.858       .  S
C94         O104   1.258       .  A
C94          O95   1.291       .  A
C94         C390   1.499       .  S
O95         Al97   2.026       .  S
O96          C98   1.256       .  A
O96         Al97   1.882       .  S
Al97        O105   1.937       .  S
Al97        O107   1.980       .  S
Al97        O106   1.784       .  S
C98         O111   1.264       .  A
C98         C420   1.496       .  S
O99         C109   1.258       .  A
O99        Al101   1.925       .  S
O100        C113   1.270       .  A
O100       Al110   1.905       .  S
Al101       O114   1.957       .  S
Al101       O111   1.933       .  S
Al101       O106   1.786       .  S
O102        C109   1.253       .  A
O102       Al110   1.859       .  S
O103        C112   1.250       .  A
O103       Al110   1.889       .  S
O104       Al110   1.852       .  S
O105        C112   1.253       .  A
O106       Al110   1.777       .  S
O107        C108   1.277       .  A
C108        C400   1.491       .  S
C109        C473   1.467       .  S
C112        C573   1.487       .  S
C113        O114   1.277       .  A
C113        C413   1.483       .  S
O115        C130   1.273       .  A
O115       Al123   1.908       .  S
C116        O126   1.274       .  A
C116        O117   1.280       .  A
C116        C373   1.509       .  S
O117       Al119   1.965       .  S
O118        C120   1.250       .  A
O118       Al119   1.901       .  S
Al119       O127   1.947       .  S
Al119       O129   1.956       .  S
Al119       O128   1.785       .  S
C120        O133   1.253       .  A
C120        C423   1.503       .  S
O121        C131   1.260       .  A
O121       Al123   1.892       .  S
O122        C135   1.252       .  A
O122       Al132   1.873       .  S
Al123       O136   1.906       .  S
Al123       O133   1.919       .  S
Al123       O128   1.787       .  S
O124        C131   1.256       .  A
O124       Al132   1.879       .  S
O125        C134   1.249       .  A
O125       Al132   1.905       .  S
O126       Al132   1.942       .  S
O127        C134   1.257       .  A
O128       Al132   1.778       .  S
O129        C130   1.285       .  A
C130        C380   1.485       .  S
C131        C550   1.477       .  S
C134        C500   1.493       .  S
C135        O136   1.257       .  A
C135        C410   1.467       .  S
O137        C152   1.279       .  A
O137       Al145   1.929       .  S
C138        O148   1.281       .  A
C138        O139   1.283       .  A
C138        C393   1.506       .  S
O139       Al141   1.957       .  S
O140        C142   1.246       .  A
O140       Al141   1.896       .  S
Al141       O149   1.955       .  S
Al141       O151   1.962       .  S
Al141       O150   1.775       .  S
C142        O155   1.262       .  A
C142        C360   1.502       .  S
O143        C153   1.261       .  A
O143       Al145   1.921       .  S
O144        C157   1.258       .  A
O144       Al154   1.880       .  S
Al145       O158   1.918       .  S
Al145       O155   1.950       .  S
Al145       O150   1.778       .  S
O146        C153   1.250       .  A
O146       Al154   1.824       .  S
O147        C156   1.245       .  A
O147       Al154   1.893       .  S
O148       Al154   1.955       .  S
O149        C156   1.255       .  A
O150       Al154   1.760       .  S
O151        C152   1.292       .  A
C152        C343   1.491       .  S
C153        C563   1.468       .  S
C156        C490   1.495       .  S
C157        O158   1.264       .  A
C157        C350   1.473       .  S
O159        C174   1.279       .  A
O159       Al167   1.935       .  S
C160        O170   1.277       .  A
C160        O161   1.275       .  A
C160        C370   1.519       .  S
O161       Al163   1.960       .  S
O162        C164   1.251       .  A
O162       Al163   1.900       .  S
Al163       O171   1.969       .  S
Al163       O173   1.934       .  S
Al163       O172   1.788       .  S
C164        O177   1.264       .  A
C164        C363   1.494       .  S
O165        C175   1.269       .  A
O165       Al167   1.942       .  S
O166        C179   1.256       .  A
O166       Al176   1.888       .  S
Al167       O180   1.907       .  S
Al167       O177   1.950       .  S
Al167       O172   1.778       .  S
O168        C175   1.249       .  A
O168       Al176   1.808       .  S
O169        C178   1.246       .  A
O169       Al176   1.873       .  S
O170       Al176   1.962       .  S
O171        C178   1.264       .  A
O172       Al176   1.768       .  S
O173        C174   1.280       .  A
C174        C333   1.484       .  S
C175        C480   1.472       .  S
C178        C583   1.489       .  S
C179        O180   1.260       .  A
C179        C353   1.477       .  S
O181        C196   1.289       .  A
O181       Al189   1.960       .  S
C182        O192   1.288       .  A
C182        O183   1.288       .  A
C182        C300   1.514       .  S
O183       Al185   1.955       .  S
O184        C186   1.243       .  A
O184       Al185   1.881       .  S
Al185       O193   1.915       .  S
Al185       O195   1.944       .  S
Al185       O194   1.768       .  S
C186        O199   1.266       .  A
C186        C313   1.516       .  S
O187        C197   1.274       .  A
O187       Al189   1.962       .  S
O188        C201   1.265       .  A
O188       Al198   1.903       .  S
Al189       O202   1.923       .  S
Al189       O199   1.985       .  S
Al189       O194   1.763       .  S
O190        C197   1.248       .  A
O190       Al198   1.837       .  S
O191        C200   1.247       .  A
O191       Al198   1.911       .  S
O192       Al198   1.960       .  S
O193        C200   1.247       .  A
O194       Al198   1.751       .  S
O195        C196   1.292       .  A
C196        C340   1.493       .  S
C197        C523   1.488       .  S
C200        C443   1.486       .  S
C201        O202   1.264       .  A
C201        C320   1.492       .  S
O203        C218   1.289       .  A
O203       Al211   1.947       .  S
C204        O214   1.288       .  A
C204        O205   1.283       .  A
C204        C293   1.490       .  S
O205       Al207   1.933       .  S
O206        C208   1.243       .  A
O206       Al207   1.883       .  S
Al207       O215   1.930       .  S
Al207       O217   1.930       .  S
Al207       O216   1.772       .  S
C208        O221   1.264       .  A
C208        C310   1.513       .  S
O209        C219   1.272       .  A
O209       Al211   1.947       .  S
O210        C223   1.264       .  A
O210       Al220   1.901       .  S
Al211       O224   1.930       .  S
Al211       O221   1.978       .  S
Al211       O216   1.761       .  S
O212        C219   1.248       .  A
O212       Al220   1.833       .  S
O213        C222   1.246       .  A
O213       Al220   1.914       .  S
O214       Al220   1.962       .  S
O215        C222   1.250       .  A
O216       Al220   1.756       .  S
O217        C218   1.291       .  A
C218        C330   1.476       .  S
C219        C433   1.476       .  S
C222        C513   1.487       .  S
C223        O224   1.265       .  A
C223        C323   1.495       .  S
O225        C240   1.257       .  A
O225       Al233   1.862       .  S
C226        O236   1.254       .  A
C226        O227   1.282       .  A
C226        C303   1.500       .  S
O227       Al229   2.012       .  S
O228        C230   1.258       .  A
O228       Al229   1.879       .  S
Al229       O237   1.904       .  S
Al229       O239   1.997       .  S
Al229       O238   1.783       .  S
C230        O243   1.264       .  A
C230        C270   1.492       .  S
O231        C241   1.261       .  A
O231       Al233   1.900       .  S
O232        C245   1.256       .  A
O232       Al242   1.888       .  S
Al233       O246   1.955       .  S
Al233       O243   1.945       .  S
Al233       O238   1.788       .  S
O234        C241   1.269       .  A
O234       Al242   1.930       .  S
O235        C244   1.264       .  A
O235       Al242   1.910       .  S
O236       Al242   1.861       .  S
O237        C244   1.254       .  A
O238       Al242   1.762       .  S
O239        C240   1.282       .  A
C240        C403   1.485       .  S
C241        C450   1.466       .  S
C244        C543   1.481       .  S
C245        O246   1.266       .  A
C245        C280   1.474       .  S
O247        C262   1.252       .  A
O247       Al255   1.848       .  S
C248        O258   1.260       .  A
C248        O249   1.285       .  A
C248        C290   1.503       .  S
O249       Al251   2.012       .  S
O250        C252   1.254       .  A
O250       Al251   1.868       .  S
Al251       O259   1.914       .  S
Al251       O261   1.978       .  S
Al251       O260   1.785       .  S
C252        O265   1.267       .  A
C252        C273   1.486       .  S
O253        C263   1.255       .  A
O253       Al255   1.909       .  S
O254        C267   1.259       .  A
O254       Al264   1.859       .  S
Al255       O268   1.982       .  S
Al255       O265   1.947       .  S
Al255       O260   1.790       .  S
O256        C263   1.265       .  A
O256       Al264   1.932       .  S
O257        C266   1.262       .  A
O257       Al264   1.920       .  S
O258       Al264   1.857       .  S
O259        C266   1.253       .  A
O260       Al264   1.771       .  S
O261        C262   1.275       .  A
C262        C383   1.484       .  S
C263        C533   1.478       .  S
C266        C460   1.493       .  S
C267        O268   1.276       .  A
C267        C283   1.482       .  S
C269        C270   1.403       .  A
C269        C274   1.393       .  A
C269        H276   1.084       .  S
C270        C271   1.418       .  A
C271        C272   1.411       .  A
C271       Br278   1.920       .  S
C272        C273   1.407       .  A
C272        H277   1.083       .  S
C273        C274   1.412       .  A
C274       Br275   1.920       .  S
C279        C280   1.405       .  A
C279       C1460   1.403       .  A
C279        H286   1.079       .  S
C280        C281   1.405       .  A
C281       C1458   1.395       .  A
C281       Br288   1.911       .  S
C282        C283   1.407       .  A
C282       C1457   1.397   1_545  A
C282        H287   1.084       .  S
C283        C284   1.408       .  A
C284       C1455   1.403   1_545  A
C284       Br285   1.912       .  S
C289        C290   1.405       .  A
C289        C294   1.417   1_655  A
C289        H296   1.083       .  S
C290        C291   1.417       .  A
C291        C292   1.396   1_655  A
C291       Br298   1.897       .  S
C292        C293   1.390       .  A
C292        H297   1.081       .  S
C293        C294   1.419       .  A
C294       Br295   1.911       .  S
C299        C300   1.409       .  A
C299        C304   1.402       .  A
C299        H306   1.079       .  S
C300        C301   1.417       .  A
C301        C302   1.424   1_455  A
C301       Br308   1.915       .  S
C302        C303   1.413       .  A
C302        H307   1.083       .  S
C303        C304   1.408   1_655  A
C304       Br305   1.920   1_455  S
C309        C310   1.419       .  A
C309        C314   1.411       .  A
C309        H316   1.083       .  S
C310        C311   1.409       .  A
C311        C312   1.411       .  A
C311       Br318   1.919       .  S
C312        C313   1.421       .  A
C312        H317   1.083       .  S
C313        C314   1.410       .  A
C314       Br315   1.918       .  S
C319        C320   1.403       .  A
C319       C1500   1.404       .  A
C319        H326   1.084       .  S
C320        C321   1.419       .  A
C321       C1498   1.404       .  A
C321       Br328   1.921       .  S
C322        C323   1.404       .  A
C322       C1497   1.404   1_545  A
C322        H327   1.084       .  S
C323        C324   1.419       .  A
C324       C1495   1.405   1_545  A
C324       Br325   1.920       .  S
C329        C330   1.400       .  A
C329        C334   1.401       .  A
C329        H336   1.084       .  S
C330        C331   1.410       .  A
C331        C332   1.406       .  A
C331       Br338   1.917       .  S
C332        C333   1.403       .  A
C332        H337   1.080       .  S
C333        C334   1.410       .  A
C334       Br335   1.912       .  S
C339        C340   1.406       .  A
C339        C344   1.407       .  A
C339        H346   1.084       .  S
C340        C341   1.410       .  A
C341        C342   1.413       .  A
C341       Br348   1.916       .  S
C342        C343   1.410       .  A
C342        H347   1.083       .  S
C343        C344   1.411       .  A
C344       Br345   1.919       .  S
C349        C350   1.403       .  A
C349        C354   1.399       .  A
C349        H356   1.083       .  S
C350        C351   1.408       .  A
C351        C352   1.401       .  A
C351       Br358   1.919       .  S
C352        C353   1.405       .  A
C352        H357   1.082       .  S
C353        C354   1.410       .  A
C354       Br355   1.918       .  S
C359        C360   1.404       .  A
C359       C1540   1.404       .  A
C359        H366   1.083       .  S
C360        C361   1.427       .  A
C361       C1538   1.406       .  A
C361       Br368   1.923       .  S
C362        C363   1.398       .  A
C362       C1537   1.406       .  A
C362        H367   1.079       .  S
C363        C364   1.414       .  A
C364       C1535   1.405   1_545  A
C364       Br365   1.911       .  S
C369        C370   1.407       .  A
C369        C374   1.419       .  A
C369        H376   1.083       .  S
C370        C371   1.419       .  A
C371        C372   1.412       .  A
C371       Br378   1.903       .  S
C372        C373   1.401       .  A
C372        H377   1.083       .  S
C373        C374   1.417       .  A
C374       Br375   1.910       .  S
C379        C380   1.409       .  A
C379        C384   1.409       .  A
C379        H386   1.083       .  S
C380        C381   1.407       .  A
C381        C382   1.406       .  A
C381       Br388   1.918       .  S
C382        C383   1.409       .  A
C382        H387   1.084       .  S
C383        C384   1.408       .  A
C384       Br385   1.918       .  S
C389        C390   1.412       .  A
C389        C394   1.410       .  A
C389        H396   1.084       .  S
C390        C391   1.408       .  A
C391        C392   1.416       .  A
C391       Br398   1.916       .  S
C392        C393   1.413       .  A
C392        H397   1.081       .  S
C393        C394   1.407       .  A
C394       Br395   1.909       .  S
C399        C400   1.402       .  A
C399        C404   1.409       .  A
C399        H406   1.083       .  S
C400        C401   1.417       .  A
C401        C402   1.403       .  A
C401       Br408   1.906       .  S
C402        C403   1.397       .  A
C402        H407   1.084       .  S
C403        C404   1.415       .  A
C404       Br405   1.913       .  S
C409        C410   1.399       .  A
C409        C414   1.397       .  A
C409        H416   1.084       .  S
C410        C411   1.405       .  A
C411        C412   1.401       .  A
C411       Br418   1.917       .  S
C412        C413   1.408       .  A
C412        H417   1.083       .  S
C413        C414   1.413       .  A
C414       Br415   1.912       .  S
C419        C420   1.410       .  A
C419       C1600   1.405       .  A
C419        H426   1.083       .  S
C420        C421   1.411       .  A
C421       C1598   1.403       .  A
C421       Br428   1.918       .  S
C422        C423   1.413       .  A
C422       C1597   1.406   1_545  A
C422        H427   1.083       .  S
C423        C424   1.416       .  A
C424       C1595   1.404   1_545  A
C424       Br425   1.921       .  S
C429        C430   1.393       .  A
C429        C434   1.385       .  A
C429        H436   1.084       .  S
C430        C431   1.410       .  A
C431        C432   1.405       .  A
C431       Br438   1.907       .  S
C432        C433   1.403       .  A
C432        H437   1.083       .  S
C433        C434   1.421       .  A
C434       Br435   1.925       .  S
C439        C440   1.400       .  A
C439        C444   1.400       .  A
C439        H446   1.075       .  S
C440        C441   1.408       .  A
C441        C442   1.404       .  A
C441       Br448   1.916       .  S
C442        C443   1.408       .  A
C442        H447   1.083       .  S
C443        C444   1.414       .  A
C444       Br445   1.919       .  S
C449        C450   1.397       .  A
C449        C454   1.400       .  A
C449        H456   1.083       .  S
C450        C451   1.399       .  A
C451        C452   1.394       .  A
C451       Br458   1.904       .  S
C452        C453   1.407       .  A
C452        H457   1.080       .  S
C453        C454   1.419       .  A
C454       Br455   1.920       .  S
C459        C460   1.392       .  A
C459        C464   1.389       .  A
C459        H466   1.085       .  S
C460        C461   1.415       .  A
C461        C462   1.419       .  A
C461       Br468   1.916       .  S
C462        C463   1.413       .  A
C462        H467   1.082       .  S
C463        C464   1.437       .  A
C464      Br1641   1.935   1_545  S
Br465      C1640   1.937       .  S
C469        C470   1.409       .  A
C469        C474   1.404       .  A
C469        H476   1.083       .  S
C470        C471   1.411       .  A
C471        C472   1.379       .  A
C471       Br478   1.929       .  S
C472        C473   1.402       .  A
C472        H477   1.083       .  S
C473        C474   1.405       .  A
C474       Br475   1.915       .  S
C479        C480   1.412       .  A
C479        C484   1.385       .  A
C479        H486   1.084       .  S
C480        C481   1.408       .  A
C481        C482   1.398       .  A
C481       Br488   1.917       .  S
C482        C483   1.406       .  A
C482        H487   1.082       .  S
C483        C484   1.398       .  A
C484       Br485   1.918       .  S
C489        C490   1.405       .  A
C489        C494   1.404       .  A
C489        H496   1.084       .  S
C490        C491   1.412       .  A
C491        C492   1.408       .  A
C491       Br498   1.912       .  S
C492        C493   1.408       .  A
C492        H497   1.079       .  S
C493        C494   1.420       .  A
C494       Br495   1.923       .  S
C499        C500   1.409       .  A
C499        C504   1.410       .  A
C499        H506   1.083       .  S
C500        C501   1.410       .  A
C501        C502   1.410       .  A
C501       Br508   1.919       .  S
C502        C503   1.414       .  A
C502        H507   1.083       .  S
C503        C504   1.408       .  A
C504       Br505   1.920       .  S
C509        C510   1.418       .  A
C509        C514   1.413       .  A
C509        H516   1.082       .  S
C510        C511   1.425       .  A
C511        C512   1.393       .  A
C511       Br518   1.924   1_455  S
C512        C513   1.395       .  A
C512        H517   1.081       .  S
C513        C514   1.407       .  A
C514       Br515   1.915       .  S
C519        C520   1.389       .  A
C519        C524   1.387       .  A
C519        H526   1.084       .  S
C520        C521   1.416       .  A
C521        C522   1.411       .  A
C521       Br528   1.916       .  S
C522        C523   1.404       .  A
C522        H527   1.083       .  S
C523        C524   1.427       .  A
C524       Br525   1.927       .  S
C529        C530   1.413       .  A
C529        C534   1.411       .  A
C529        H536   1.082       .  S
C530        C531   1.422       .  A
C531        C532   1.388       .  A
C531       Br538   1.924       .  S
C532        C533   1.392       .  A
C532        H537   1.077       .  S
C533        C534   1.410       .  A
C534       Br535   1.918       .  S
C539        C540   1.411       .  A
C539        C544   1.417       .  A
C539        H546   1.082       .  S
C540        C541   1.436       .  A
C541        C542   1.382       .  A
C541      Br1724   1.937       .  S
C542        C543   1.387       .  A
C542        H547   1.086       .  S
C543        C544   1.414       .  A
C544       Br545   1.914       .  S
Br548      C1717   1.937   1_545  S
C549        C550   1.409       .  A
C549        C554   1.400       .  A
C549        H556   1.083       .  S
C550        C551   1.414       .  A
C551        C552   1.387       .  A
C551       Br558   1.924       .  S
C552        C553   1.406       .  A
C552        H557   1.083       .  S
C553        C554   1.403       .  A
C554       Br555   1.914       .  S
C559        C560   1.404       .  A
C559        C564   1.402       .  A
C559        H566   1.082       .  S
C560        C561   1.409       .  A
C561        C562   1.383       .  A
C561       Br568   1.925       .  S
C562        C563   1.404       .  A
C562        H567   1.084       .  S
C563        C564   1.409       .  A
C564       Br565   1.916       .  S
C569        C570   1.421       .  A
C569        C574   1.417       .  A
C569        H576   1.078       .  S
C570        C571   1.436       .  A
C571        C572   1.387       .  A
C571       Br578   1.929       .  S
C572        C573   1.389       .  A
C572        H577   1.082       .  S
C573        C574   1.406       .  A
C574       Br575   1.914       .  S
C579        C580   1.410       .  A
C579        C584   1.405       .  A
C579        H586   1.081       .  S
C580        C581   1.409       .  A
C581        C582   1.404       .  A
C581       Br588   1.922       .  S
C582        C583   1.412       .  A
C582        H587   1.083       .  S
C583        C584   1.409       .  A
C584       Br585   1.917       .  S
C589        C591   1.527       .  S
C589        C593   1.519       .  S
C589        C592   1.541       .  S
C589       C1158   1.545       .  S
C590        C594   1.560       .  S
C590        C596   1.539       .  S
C590        C595   1.548       .  S
C590       C1168   1.555       .  S
C591        C599   1.361       .  A
C591        C594   1.392       .  A
C592        C603   1.383       .  A
C592        C595   1.424       .  A
C593        C607   1.381       .  A
C593        C596   1.398       .  A
C594        C597   1.394       .  A
C595        C601   1.368       .  A
C596        C604   1.377       .  A
C597        N598   1.370       .  A
C597        H610   1.070       .  S
N598        C599   1.353       .  A
N598       C1148   1.454       .  S
C599        H600   1.077       .  S
C601        N602   1.343       .  A
C601        H611   1.083       .  S
N602        C603   1.353       .  A
N602        N648   1.396       .  S
C603        H609   1.082       .  S
C604        N605   1.338       .  A
C604        H606   1.089       .  S
N605        C607   1.341       .  A
N605       C1141   1.421       .  S
C607        H608   1.080       .  S
C612        C614   1.527       .  S
C612       C1792   1.522       .  S
C612        C615   1.562       .  S
C612       C1128   1.537       .  S
C613       C1793   1.526       .  S
C613        C619   1.546   1_455  S
C613        C618   1.564       .  S
C613       C1098   1.536       .  S
C614        C622   1.388       .  A
C614        C617   1.374   1_655  A
C615        C626   1.394       .  A
C615       C1794   1.448   1_655  A
C616       C1788   1.522   1_545  S
C616        C630   1.362       .  A
C616        C619   1.369       .  A
C617       C1789   1.525       .  S
C617        C620   1.386       .  A
C618       C1791   1.447   1_445  A
C618        C624   1.382       .  A
C619        C627   1.393       .  A
C620        N621   1.354       .  A
C620        H633   1.083       .  S
N621        C622   1.349   1_455  A
N621       C1108   1.442       .  S
C622        H623   1.081       .  S
C624       N1801   1.351   1_455  A
C624        H634   1.082       .  S
N625       C1800   1.346   1_655  A
N625        C626   1.356       .  A
N625       N1847   1.406       .  S
C626        H632   1.082       .  S
C627        N628   1.372       .  A
C627        H629   1.082       .  S
N628        C630   1.358       .  A
N628       C1118   1.458       .  S
C630        H631   1.070       .  S
C635        C637   1.543       .  S
C635        C639   1.561       .  S
C635       C1091   1.565       .  S
C636        C640   1.526       .  S
C636        C642   1.532       .  S
C636       C1081   1.555       .  S
C637        C645   1.382       .  A
C637        C640   1.400       .  A
C638        C649   1.375       .  A
C638        C641   1.413       .  A
C639        C653   1.389       .  A
C639        C642   1.387       .  A
C640        C643   1.381       .  A
C641        C647   1.378       .  A
C642        C650   1.372       .  A
C643        N644   1.343       .  A
C643        H656   1.082       .  S
N644        C645   1.345       .  A
N644       C1071   1.433       .  S
C645        H646   1.070       .  S
C647        N648   1.348       .  A
C647        H657   1.082       .  S
N648        C649   1.346       .  A
C649        H655   1.082       .  S
C650        N651   1.354       .  A
C650        H652   1.081       .  S
N651        C653   1.362       .  A
N651       C1058   1.455       .  S
C653        H654   1.062       .  S
C658        C660   1.563   1_455  S
C658       C1838   1.545       .  S
C658        C661   1.547       .  S
C658       C1028   1.547       .  S
C659       C1839   1.526       .  S
C659        C665   1.518   1_665  S
C659        C664   1.560       .  S
C659       C1051   1.552   1_565  S
C660        C668   1.393       .  A
C660        C663   1.388       .  A
C661       C1840   1.432   1_455  A
C662       C1834   1.552       .  S
C662        C676   1.400       .  A
C662        C665   1.379   1_565  A
C663       C1835   1.524       .  S
C663        C666   1.369       .  A
C664       C1837   1.425   1_655  A
C665        C673   1.366       .  A
C666        N667   1.353       .  A
C666        H679   1.081       .  S
N667        C668   1.363       .  A
N667       C1041   1.446       .  S
C668        H669   1.074       .  S
C670        N671   1.360       .  A
C670        H680   1.082       .  S
N671       C1848   1.347   1_645  A
N671       N1801   1.407       .  S
C672       N1847   1.344   1_455  A
C672        H678   1.082       .  S
C673        N674   1.346       .  A
C673        H675   1.083       .  S
N674        C676   1.359   1_545  A
N674       C1018   1.436       .  S
C676        H677   1.079       .  S
O681        C696   1.250       .  A
O681       Al689   1.855       .  S
C682        O692   1.264       .  A
C682        O683   1.286       .  A
C682        C978   1.491       .  S
O683       Al685   1.999       .  S
O684        C686   1.256       .  A
O684       Al685   1.873       .  S
Al685       O693   1.942       .  S
Al685       O695   1.975       .  S
Al685       O694   1.788       .  S
C686        O699   1.267       .  A
C686       C1008   1.485       .  S
O687        C697   1.251       .  A
O687       Al689   1.914       .  S
O688        C701   1.266       .  A
O688       Al698   1.865       .  S
Al689       O702   1.963       .  S
Al689       O699   1.930       .  S
Al689       O694   1.783       .  S
O690        C697   1.249       .  A
O690       Al698   1.884       .  S
O691        C700   1.255       .  A
O691       Al698   1.894       .  S
O692       Al698   1.869       .  S
O693        C700   1.259       .  A
O694       Al698   1.771       .  S
O695        C696   1.272       .  A
C696        C988   1.492       .  S
C697       C1061   1.465       .  S
C700       C1161   1.496       .  S
C701        O702   1.280       .  A
C701       C1001   1.477       .  S
O703        C718   1.286       .  A
O703       Al711   1.950       .  S
C704        O714   1.284       .  A
C704        O705   1.277       .  A
C704        C961   1.523       .  S
O705       Al707   1.952       .  S
O706        C708   1.248       .  A
O706       Al707   1.889       .  S
Al707       O715   1.976       .  S
Al707       O717   1.932       .  S
Al707       O716   1.787       .  S
C708        O721   1.257       .  A
C708       C1011   1.500       .  S
O709        C719   1.270       .  A
O709       Al711   1.953       .  S
O710        C723   1.258       .  A
O710       Al720   1.894       .  S
Al711       O724   1.903       .  S
Al711       O721   1.935       .  S
Al711       O716   1.775       .  S
O712        C719   1.242       .  A
O712       Al720   1.809       .  S
O713        C722   1.243       .  A
O713       Al720   1.884       .  S
O714       Al720   1.976       .  S
O715        C722   1.260       .  A
O716       Al720   1.756       .  S
O717        C718   1.286       .  A
C718        C968   1.485       .  S
C719       C1138   1.473       .  S
C722       C1088   1.493       .  S
C723        O724   1.258       .  A
C723        C998   1.468       .  S
O725        C740   1.250       .  A
O725       Al733   1.846       .  S
C726        O736   1.265       .  A
C726        O727   1.283       .  A
C726        C981   1.494       .  S
O727       Al729   1.990       .  S
O728        C730   1.252       .  A
O728       Al729   1.866       .  S
Al729       O737   1.923       .  S
Al729       O739   1.965       .  S
Al729       O738   1.789       .  S
C730        O743   1.269       .  A
C730        C948   1.489       .  S
O731        C741   1.253       .  A
O731       Al733   1.907       .  S
O732        C745   1.264       .  A
O732       Al742   1.878       .  S
Al733       O746   1.969       .  S
Al733       O743   1.947       .  S
Al733       O738   1.784       .  S
O734        C741   1.256       .  A
O734       Al742   1.913       .  S
O735        C744   1.256       .  A
O735       Al742   1.907       .  S
O736       Al742   1.868       .  S
O737        C744   1.256       .  A
O738       Al742   1.773       .  S
O739        C740   1.271       .  A
C740        C931   1.479       .  S
C741       C1151   1.468       .  S
C744       C1078   1.492       .  S
C745        O746   1.278       .  A
C745        C938   1.468       .  S
O747        C762   1.256       .  A
O747       Al755   1.848       .  S
C748        O758   1.259       .  A
C748        O749   1.286       .  A
C748        C958   1.512       .  S
O749       Al751   2.016       .  S
O750        C752   1.250       .  A
O750       Al751   1.864       .  S
Al751       O759   1.903       .  S
Al751       O761   1.979       .  S
Al751       O760   1.779       .  S
C752        O765   1.263       .  A
C752        C951   1.477       .  S
O753        C763   1.263       .  A
O753       Al755   1.908       .  S
O754        C767   1.263       .  A
O754       Al764   1.891       .  S
Al755       O768   1.947       .  S
Al755       O765   1.941       .  S
Al755       O760   1.786       .  S
O756        C763   1.259       .  A
O756       Al764   1.889       .  S
O757        C766   1.256       .  A
O757       Al764   1.914       .  S
O758       Al764   1.876       .  S
O759        C766   1.249       .  A
O760       Al764   1.779       .  S
O761        C762   1.278       .  A
C762        C921   1.482       .  S
C763       C1068   1.451       .  S
C766       C1171   1.478       .  S
C767        O768   1.271       .  A
C767        C941   1.489       .  S
O769        C784   1.290       .  A
O769       Al777   1.952       .  S
C770        O780   1.287       .  A
C770        O771   1.287       .  A
C770        C888   1.509       .  S
O771       Al773   1.945       .  S
O772        C774   1.244       .  A
O772       Al773   1.885       .  S
Al773       O781   1.922       .  S
Al773       O783   1.929       .  S
Al773       O782   1.769       .  S
C774        O787   1.263       .  A
C774        C901   1.518       .  S
O775        C785   1.276       .  A
O775       Al777   1.964       .  S
O776        C789   1.263       .  A
O776       Al786   1.909       .  S
Al777       O790   1.919       .  S
Al777       O787   1.972       .  S
Al777       O782   1.764       .  S
O778        C785   1.251       .  A
O778       Al786   1.845       .  S
O779        C788   1.249       .  A
O779       Al786   1.914       .  S
O780       Al786   1.955       .  S
O781        C788   1.249       .  A
O782       Al786   1.754       .  S
O783        C784   1.289       .  A
C784        C928   1.480       .  S
C785       C1111   1.488       .  S
C788       C1031   1.489       .  S
C789        O790   1.261       .  A
C789        C908   1.496       .  S
O791        C806   1.289       .  A
O791       Al799   1.950       .  S
C792        O802   1.286       .  A
C792        O793   1.282       .  A
C792        C881   1.485       .  S
O793       Al795   1.933       .  S
O794        C796   1.245       .  A
O794       Al795   1.890       .  S
Al795       O803   1.933       .  S
Al795       O805   1.928       .  S
Al795       O804   1.778       .  S
C796        O809   1.264       .  A
C796        C898   1.517       .  S
O797        C807   1.270       .  A
O797       Al799   1.948       .  S
O798        C811   1.262       .  A
O798       Al808   1.891       .  S
Al799       O812   1.937       .  S
Al799       O809   1.977       .  S
Al799       O804   1.764       .  S
O800        C807   1.250       .  A
O800       Al808   1.844       .  S
O801        C810   1.246       .  A
O801       Al808   1.916       .  S
O802       Al808   1.950       .  S
O803        C810   1.250       .  A
O804       Al808   1.753       .  S
O805        C806   1.288       .  A
C806        C918   1.478       .  S
C807       C1021   1.479       .  S
C810       C1101   1.484       .  S
C811        O812   1.266       .  A
C811        C911   1.494       .  S
O813        C828   1.258       .  A
O813       Al821   1.858       .  S
C814        O824   1.253       .  A
C814        O815   1.282       .  A
C814        C891   1.497       .  S
O815       Al817   2.011       .  S
O816        C818   1.253       .  A
O816       Al817   1.866       .  S
Al817       O825   1.897       .  S
Al817       O827   2.004       .  S
Al817       O826   1.783       .  S
C818        O831   1.263       .  A
C818        C858   1.486       .  S
O819        C829   1.261       .  A
O819       Al821   1.900       .  S
O820        C833   1.255       .  A
O820       Al830   1.881       .  S
Al821       O834   1.967       .  S
Al821       O831   1.941       .  S
Al821       O826   1.788       .  S
O822        C829   1.270       .  A
O822       Al830   1.937       .  S
O823        C832   1.264       .  A
O823       Al830   1.911       .  S
O824       Al830   1.850       .  S
O825        C832   1.252       .  A
O826       Al830   1.761       .  S
O827        C828   1.284       .  A
C828        C991   1.490       .  S
C829       C1038   1.468       .  S
C832       C1131   1.480       .  S
C833        O834   1.269       .  A
C833        C868   1.477       .  S
O835        C850   1.252       .  A
O835       Al843   1.845       .  S
C836        O846   1.258       .  A
C836        O837   1.283       .  A
C836        C878   1.505       .  S
O837       Al839   2.008       .  S
O838        C840   1.255       .  A
O838       Al839   1.869       .  S
Al839       O847   1.924       .  S
Al839       O849   1.982       .  S
Al839       O848   1.785       .  S
C840        O853   1.265       .  A
C840        C861   1.479       .  S
O841        C851   1.254       .  A
O841       Al843   1.900       .  S
O842        C855   1.259       .  A
O842       Al852   1.865       .  S
Al843       O856   1.973       .  S
Al843       O853   1.939       .  S
Al843       O848   1.787       .  S
O844        C851   1.268       .  A
O844       Al852   1.943       .  S
O845        C854   1.266       .  A
O845       Al852   1.922       .  S
O846       Al852   1.856       .  S
O847        C854   1.257       .  A
O848       Al852   1.763       .  S
O849        C850   1.276       .  A
C850        C971   1.479       .  S
C851       C1121   1.474       .  S
C854       C1048   1.502       .  S
C855        O856   1.273       .  A
C855        C871   1.483       .  S
C857        C858   1.405       .  A
C857        C862   1.392       .  A
C857        H864   1.084       .  S
C858        C859   1.416       .  A
C859        C860   1.406       .  A
C859       Br866   1.920       .  S
C860        C861   1.404       .  A
C860        H865   1.083       .  S
C861        C862   1.410       .  A
C862       Br863   1.921       .  S
C867        C868   1.405       .  A
C867       C2048   1.403       .  A
C867        H874   1.080       .  S
C868        C869   1.406       .  A
C869       C2046   1.397       .  A
C869       Br876   1.909       .  S
C870       C2045   1.395   1_545  A
C870        C871   1.405       .  A
C870        H875   1.084       .  S
C871        C872   1.410       .  A
C872       C2043   1.404   1_545  A
C872       Br873   1.911       .  S
C877        C878   1.408   1_455  A
C877        C882   1.419       .  A
C877        H884   1.083   1_455  S
C878        C879   1.419       .  A
C879        C880   1.392   1_655  A
C879       Br886   1.896       .  S
C880        C881   1.387       .  A
C880        H885   1.082       .  S
C881        C882   1.417       .  A
C882       Br883   1.914       .  S
C887        C888   1.407       .  A
C887        C892   1.397   1_455  A
C887        H894   1.081       .  S
C888        C889   1.418       .  A
C889        C890   1.422   1_455  A
C889       Br896   1.916       .  S
C890        C891   1.411       .  A
C890        H895   1.083       .  S
C891        C892   1.411       .  A
C892       Br893   1.922       .  S
C897        C898   1.419       .  A
C897        C902   1.412       .  A
C897        H904   1.083       .  S
C898        C899   1.412       .  A
C899        C900   1.411       .  A
C899       Br906   1.919       .  S
C900        C901   1.419       .  A
C900        H905   1.083       .  S
C901        C902   1.412       .  A
C902       Br903   1.919       .  S
C907        C908   1.404       .  A
C907       C2088   1.405       .  A
C907        H914   1.084       .  S
C908        C909   1.420       .  A
C909       C2086   1.405       .  A
C909       Br916   1.920       .  S
C910       C2085   1.402       .  A
C910        C911   1.405   1_565  A
C910        H915   1.084   1_565  S
C911        C912   1.417       .  A
C912       C2083   1.405   1_545  A
C912       Br913   1.918       .  S
C917        C918   1.399       .  A
C917        C922   1.400       .  A
C917        H924   1.084       .  S
C918        C919   1.411       .  A
C919        C920   1.406       .  A
C919       Br926   1.914       .  S
C920        C921   1.403       .  A
C920        H925   1.082       .  S
C921        C922   1.416       .  A
C922       Br923   1.922       .  S
C927        C928   1.405       .  A
C927        C932   1.403       .  A
C927        H934   1.084       .  S
C928        C929   1.405       .  A
C929        C930   1.407       .  A
C929       Br936   1.917       .  S
C930        C931   1.409       .  A
C930        H935   1.082       .  S
C931        C932   1.409       .  A
C932       Br933   1.918       .  S
C937        C938   1.398       .  A
C937        C942   1.393       .  A
C937        H944   1.084       .  S
C938        C939   1.402       .  A
C939        C940   1.403       .  A
C939       Br946   1.911       .  S
C940        C941   1.412       .  A
C940        H945   1.083       .  S
C941        C942   1.416       .  A
C942       Br943   1.919       .  S
C947        C948   1.401       .  A
C947       C2128   1.402       .  A
C947        H954   1.084       .  S
C948        C949   1.420       .  A
C949       C2126   1.406       .  A
C949       Br956   1.920       .  S
C950       C2125   1.404   1_545  A
C950        C951   1.399       .  A
C950        H955   1.083       .  S
C951        C952   1.415       .  A
C952       C2123   1.397   1_545  A
C952       Br953   1.919       .  S
C957        C958   1.405       .  A
C957        C962   1.420       .  A
C957        H964   1.083       .  S
C958        C959   1.416       .  A
C959        C960   1.418       .  A
C959       Br966   1.920       .  S
C960        C961   1.408       .  A
C960        H965   1.083       .  S
C961        C962   1.424       .  A
C962       Br963   1.907       .  S
C967        C968   1.403       .  A
C967        C972   1.405       .  A
C967        H974   1.076       .  S
C968        C969   1.406       .  A
C969        C970   1.407       .  A
C969       Br976   1.917       .  S
C970        C971   1.410       .  A
C970        H975   1.084       .  S
C971        C972   1.407       .  A
C972       Br973   1.918       .  S
C977        C978   1.413       .  A
C977        C982   1.406       .  A
C977        H984   1.084       .  S
C978        C979   1.408       .  A
C979        C980   1.402       .  A
C979       Br986   1.919       .  S
C980        C981   1.412       .  A
C980        H985   1.084       .  S
C981        C982   1.410       .  A
C982       Br983   1.920       .  S
C987        C988   1.404       .  A
C987        C992   1.409       .  A
C987        H994   1.083       .  S
C988        C989   1.415       .  A
C989        C990   1.409       .  A
C989       Br996   1.917       .  S
C990        C991   1.403       .  A
C990        H995   1.083       .  S
C991        C992   1.414       .  A
C992       Br993   1.916       .  S
C997        C998   1.400       .  A
C997       C1002   1.395       .  A
C997       H1004   1.085       .  S
C998        C999   1.404       .  A
C999       C1000   1.401       .  A
C999      Br1006   1.907       .  S
C1000      C1001   1.405       .  A
C1000      H1005   1.083       .  S
C1001      C1002   1.415       .  A
C1002     Br1003   1.925       .  S
C1007      C1008   1.409       .  A
C1007      C2188   1.404       .  A
C1007      H1014   1.084       .  S
C1008      C1009   1.407       .  A
C1009      C2186   1.398       .  A
C1009     Br1016   1.920       .  S
C1010      C2185   1.400   1_545  A
C1010      C1011   1.413       .  A
C1010      H1015   1.083       .  S
C1011      C1012   1.414       .  A
C1012      C2183   1.406   1_545  A
C1012     Br1013   1.920       .  S
C1017      C1018   1.394       .  A
C1017      C1022   1.381       .  A
C1017      H1024   1.084       .  S
C1018      C1019   1.412       .  A
C1019      C1020   1.411       .  A
C1019     Br1026   1.913       .  S
C1020      C1021   1.408       .  A
C1020      H1025   1.083       .  S
C1021      C1022   1.418       .  A
C1022     Br1023   1.922       .  S
C1027      C1028   1.400       .  A
C1027      C1032   1.401       .  A
C1027      H1034   1.076       .  S
C1028      C1029   1.409       .  A
C1029      C1030   1.406       .  A
C1029     Br1036   1.915       .  S
C1030      C1031   1.409       .  A
C1030      H1035   1.083       .  S
C1031      C1032   1.416       .  A
C1032     Br1033   1.921       .  S
C1037      C1038   1.398       .  A
C1037      C1042   1.401       .  A
C1037      H1044   1.082       .  S
C1038      C1039   1.400       .  A
C1039      C1040   1.393       .  A
C1039     Br1046   1.904       .  S
C1040      C1041   1.407       .  A
C1040      H1045   1.080       .  S
C1041      C1042   1.416       .  A
C1042     Br1043   1.919       .  S
C1047      C1048   1.391       .  A
C1047      C1052   1.384       .  A
C1047      H1054   1.084       .  S
C1048      C1049   1.421       .  A
C1049      C1050   1.425       .  A
C1049     Br1056   1.915       .  S
C1050      C1051   1.412       .  A
C1050      H1055   1.082       .  S
C1051      C1052   1.438       .  A
C1052     Br2229   1.940   1_545  S
Br1053     C2228   1.939       .  S
C1057      C1058   1.416       .  A
C1057      C1062   1.401       .  A
C1057      H1064   1.082       .  S
C1058      C1059   1.422       .  A
C1059      C1060   1.395       .  A
C1059     Br1066   1.916       .  S
C1060      C1061   1.396       .  A
C1060      H1065   1.083       .  S
C1061      C1062   1.399       .  A
C1062     Br1063   1.916       .  S
C1067      C1068   1.392       .  A
C1067      C1072   1.379       .  A
C1067      H1074   1.077       .  S
C1068      C1069   1.406       .  A
C1069      C1070   1.402       .  A
C1069     Br1076   1.916       .  S
C1070      C1071   1.408       .  A
C1070      H1075   1.083       .  S
C1071      C1072   1.406       .  A
C1072     Br1073   1.908       .  S
C1077      C1078   1.408       .  A
C1077      C1082   1.417       .  A
C1077      H1084   1.083       .  S
C1078      C1079   1.406       .  A
C1079      C1080   1.387       .  A
C1079     Br1086   1.927       .  S
C1080      C1081   1.416       .  A
C1080      H1085   1.080       .  S
C1081      C1082   1.425       .  A
C1082     Br1083   1.914       .  S
C1087      C1088   1.408       .  A
C1087      C1092   1.405       .  A
C1087      H1094   1.083       .  S
C1088      C1089   1.413       .  A
C1089      C1090   1.416       .  A
C1089     Br1096   1.917       .  S
C1090      C1091   1.410       .  A
C1090      H1095   1.083       .  S
C1091      C1092   1.405       .  A
C1092     Br1093   1.920       .  S
C1097      C1098   1.415       .  A
C1097      C1102   1.417       .  A
C1097      H1104   1.081       .  S
C1098      C1099   1.427       .  A
C1099      C1100   1.387       .  A
C1099     Br1106   1.930   1_455  S
C1100      C1101   1.391       .  A
C1100      H1105   1.078       .  S
C1101      C1102   1.409       .  A
C1102     Br1103   1.913       .  S
C1107      C1108   1.392       .  A
C1107      C1112   1.388       .  A
C1107      H1114   1.084       .  S
C1108      C1109   1.417       .  A
C1109      C1110   1.412       .  A
C1109     Br1116   1.916       .  S
C1110      C1111   1.404       .  A
C1110      H1115   1.083       .  S
C1111      C1112   1.425       .  A
C1112     Br1113   1.928       .  S
C1117      C1118   1.414       .  A
C1117      C1122   1.410       .  A
C1117      H1124   1.082       .  S
C1118      C1119   1.418       .  A
C1119      C1120   1.388       .  A
C1119     Br1126   1.922       .  S
C1120      C1121   1.391       .  A
C1120      H1125   1.076       .  S
C1121      C1122   1.409       .  A
C1122     Br1123   1.920       .  S
C1127      C1128   1.412       .  A
C1127      C1132   1.418       .  A
C1127      H1134   1.083       .  S
C1128      C1129   1.439       .  A
C1129      C1130   1.381       .  A
C1129     Br2312   1.937       .  S
C1130      C1131   1.385       .  A
C1130      H1135   1.086       .  S
C1131      C1132   1.414       .  A
C1132     Br1133   1.915       .  S
Br1136     C2305   1.936   1_545  S
C1137      C1138   1.405       .  A
C1137      C1142   1.405       .  A
C1137      H1144   1.083       .  S
C1138      C1139   1.425       .  A
C1139      C1140   1.374       .  A
C1139     Br1146   1.911       .  S
C1140      C1141   1.380       .  A
C1140      H1145   1.084       .  S
C1141      C1142   1.408       .  A
C1142     Br1143   1.916       .  S
C1147      C1148   1.407       .  A
C1147      C1152   1.398       .  A
C1147      H1154   1.080       .  S
C1148      C1149   1.421       .  A
C1149      C1150   1.400       .  A
C1149     Br1156   1.921       .  S
C1150      C1151   1.396       .  A
C1150      H1155   1.083       .  S
C1151      C1152   1.407       .  A
C1152     Br1153   1.916       .  S
C1157      C1158   1.413       .  A
C1157      C1162   1.418       .  A
C1157      H1164   1.080       .  S
C1158      C1159   1.430       .  A
C1159      C1160   1.387       .  A
C1159     Br1166   1.937       .  S
C1160      C1161   1.399       .  A
C1160      H1165   1.084       .  S
C1161      C1162   1.414       .  A
C1162     Br1163   1.915       .  S
C1167      C1168   1.419       .  A
C1167      C1172   1.409       .  A
C1167      H1174   1.083       .  S
C1168      C1169   1.408       .  A
C1169      C1170   1.404       .  A
C1169     Br1176   1.914       .  S
C1170      C1171   1.401       .  A
C1170      H1175   1.083       .  S
C1171      C1172   1.404       .  A
C1172     Br1173   1.917       .  S
C1177      C1179   1.532       .  S
C1177      C1181   1.511       .  S
C1177      C1180   1.549       .  S
C1177      C1746   1.539       .  S
C1178      C1182   1.556       .  S
C1178      C1184   1.565       .  S
C1178      C1183   1.547       .  S
C1178      C1756   1.561       .  S
C1179      C1187   1.370       .  A
C1179      C1182   1.396       .  A
C1180      C1191   1.381       .  A
C1180      C1183   1.430       .  A
C1181      C1195   1.371       .  A
C1181      C1184   1.378       .  A
C1182      C1185   1.405       .  A
C1183      C1189   1.375       .  A
C1184      C1192   1.390       .  A
C1185      N1186   1.359       .  A
C1185      H1198   1.068       .  S
N1186      C1187   1.343       .  A
N1186      C1736   1.454       .  S
C1187      H1188   1.076       .  S
C1189      N1190   1.350       .  A
C1189      H1199   1.082       .  S
N1190      C1191   1.353       .  A
N1190      N1236   1.401       .  S
C1191      H1197   1.081       .  S
C1192      N1193   1.356       .  A
C1192      H1194   1.075       .  S
N1193      C1195   1.347       .  A
N1193      C1729   1.431       .  S
C1195      H1196   1.083       .  S
C1200      C1202   1.520       .  S
C1200      C1203   1.557       .  S
C1200      C1716   1.537       .  S
C1201      C1207   1.554   1_455  S
C1201      C1206   1.558       .  S
C1201      C1686   1.533       .  S
C1202      C1210   1.381   1_655  A
C1202      C1205   1.380   1_665  A
C1203      C1214   1.388       .  A
C1204      C1218   1.359       .  A
C1204      C1207   1.372       .  A
C1205      C1208   1.389       .  A
C1206      C1212   1.380       .  A
C1207      C1215   1.396       .  A
C1208      N1209   1.351   1_545  A
C1208      H1221   1.082       .  S
N1209      C1210   1.341       .  A
N1209      C1696   1.432       .  S
C1210      H1211   1.082   1_455  S
C1212      H1222   1.082       .  S
N1213      C1214   1.355       .  A
C1214      H1220   1.082       .  S
C1215      N1216   1.373       .  A
C1215      H1217   1.081       .  S
N1216      C1218   1.357       .  A
N1216      C1706   1.460       .  S
C1218      H1219   1.068       .  S
C1223      C1225   1.551       .  S
C1223      C1227   1.541       .  S
C1223      C1814   1.546       .  S
C1223      C1679   1.559       .  S
C1224      C1228   1.538       .  S
C1224      C1230   1.534       .  S
C1224      C1817   1.549       .  S
C1224      C1669   1.552       .  S
C1225      C1233   1.387       .  A
C1225      C1228   1.391       .  A
C1226      C1811   1.548       .  S
C1226      C1237   1.378   1_556  A
C1226      C1229   1.434       .  A
C1227      C1241   1.385       .  A
C1227      C1230   1.390       .  A
C1228      C1231   1.376       .  A
C1229      C1812   1.550       .  S
C1229      C1235   1.383   1_556  A
C1230      C1238   1.384       .  A
C1231      N1232   1.345       .  A
C1231      H1244   1.082       .  S
N1232      C1233   1.349       .  A
N1232      C1659   1.428       .  S
C1233      H1234   1.078       .  S
C1235      N1236   1.349       .  A
C1235      H1245   1.081       .  S
N1236      C1237   1.348       .  A
C1237      H1243   1.082       .  S
C1238      N1239   1.349       .  A
C1238      H1240   1.082       .  S
N1239      C1241   1.350       .  A
N1239      C1646   1.446       .  S
C1241      H1242   1.069       .  S
C1246      C1248   1.566   1_455  S
C1246      C1249   1.545       .  S
C1246      C1616   1.548       .  S
C1247      C1253   1.520   1_655  S
C1247      C1252   1.561       .  S
C1247      C1639   1.546       .  S
C1248      C1256   1.394       .  A
C1248      C1251   1.388       .  A
C1249      C1848   1.372       .  A
C1250      C1264   1.402       .  A
C1250      C1253   1.378       .  A
C1251      C1254   1.367       .  A
C1252      C1846   1.396       .  A
C1253      C1261   1.369       .  A
C1254      N1255   1.354       .  A
C1254      H1267   1.080       .  S
N1255      C1256   1.364       .  A
N1255      C1629   1.449       .  S
C1256      H1257   1.073       .  S
C1258      C1840   1.393       .  A
C1258      N1259   1.362   1_556  A
C1258      H1268   1.082   1_556  S
C1260      C1837   1.371   1_554  A
C1260      H1266   1.082       .  S
C1261      N1262   1.344       .  A
C1261      H1263   1.083   1_455  S
N1262      C1264   1.358       .  A
N1262      C1606   1.437       .  S
C1264      H1265   1.079       .  S
O1269      C1284   1.255       .  A
O1269     Al1277   1.860       .  S
C1270      O1280   1.263       .  A
C1270      O1271   1.288       .  A
C1270      C1566   1.492       .  S
O1271     Al1273   2.003       .  S
O1272      C1274   1.257       .  A
O1272     Al1273   1.880       .  S
Al1273     O1281   1.946       .  S
Al1273     O1283   1.950       .  S
Al1273     O1282   1.787       .  S
C1274      O1287   1.267       .  A
C1274      C1596   1.494       .  S
O1275      C1285   1.258       .  A
O1275     Al1277   1.938       .  S
O1276      C1289   1.272       .  A
O1276     Al1286   1.891       .  S
Al1277     O1290   1.963       .  S
Al1277     O1287   1.937       .  S
Al1277     O1282   1.782       .  S
O1278      C1285   1.247       .  A
O1278     Al1286   1.853       .  S
O1279      C1288   1.248       .  A
O1279     Al1286   1.874       .  S
O1280     Al1286   1.850       .  S
O1281      C1288   1.254       .  A
O1282     Al1286   1.766       .  S
O1283      C1284   1.269       .  A
C1284      C1576   1.478       .  S
C1285      C1649   1.466       .  S
C1288      C1749   1.487       .  S
C1289      O1290   1.280       .  A
C1289      C1589   1.483       .  S
O1291      C1306   1.279       .  A
O1291     Al1299   1.932       .  S
C1292      O1302   1.278       .  A
C1292      O1293   1.279       .  A
C1292      C1549   1.507       .  S
O1293     Al1295   1.952       .  S
O1294      C1296   1.249       .  A
O1294     Al1295   1.897       .  S
Al1295     O1303   1.935       .  S
Al1295     O1305   1.938       .  S
Al1295     O1304   1.782       .  S
C1296      O1309   1.254       .  A
C1296      C1599   1.501       .  S
O1297      C1307   1.265       .  A
O1297     Al1299   1.912       .  S
O1298      C1311   1.257       .  A
O1298     Al1308   1.890       .  S
Al1299     O1312   1.899       .  S
Al1299     O1309   1.929       .  S
Al1299     O1304   1.779       .  S
O1300      C1307   1.253       .  A
O1300     Al1308   1.861       .  S
O1301      C1310   1.252       .  A
O1301     Al1308   1.912       .  S
O1302     Al1308   1.957       .  S
O1303      C1310   1.256       .  A
O1304     Al1308   1.774       .  S
O1305      C1306   1.283       .  A
C1306      C1556   1.483       .  S
C1307      C1726   1.477       .  S
C1310      C1676   1.491       .  S
C1311      O1312   1.256       .  A
C1311      C1586   1.469       .  S
O1313      C1328   1.252       .  A
O1313     Al1321   1.848       .  S
C1314      O1324   1.262       .  A
C1314      O1315   1.285       .  A
C1314      C1569   1.482       .  S
O1315     Al1317   1.990       .  S
O1316      C1318   1.251       .  A
O1316     Al1317   1.872       .  S
Al1317     O1325   1.924       .  S
Al1317     O1327   1.960       .  S
Al1317     O1326   1.787       .  S
C1318      O1331   1.269       .  A
C1318      C1536   1.505       .  S
O1319      C1329   1.254       .  A
O1319     Al1321   1.915       .  S
O1320      C1333   1.264       .  A
O1320     Al1330   1.886       .  S
Al1321     O1334   1.978       .  S
Al1321     O1331   1.948       .  S
Al1321     O1326   1.785       .  S
O1322      C1329   1.254       .  A
O1322     Al1330   1.895       .  S
O1323      C1332   1.252       .  A
O1323     Al1330   1.898       .  S
O1324     Al1330   1.858       .  S
O1325      C1332   1.254       .  A
O1326     Al1330   1.770       .  S
O1327      C1328   1.272       .  A
C1328      C1519   1.475       .  S
C1329      C1739   1.463       .  S
C1332      C1666   1.485       .  S
C1333      O1334   1.280       .  A
C1333      C1526   1.477       .  S
O1335      C1350   1.260       .  A
O1335     Al1343   1.857       .  S
C1336      O1346   1.261       .  A
C1336      O1337   1.282       .  A
C1336      C1546   1.506       .  S
O1337     Al1339   1.995       .  S
O1338      C1340   1.244       .  A
O1338     Al1339   1.854       .  S
Al1339     O1347   1.899       .  S
Al1339     O1349   1.969       .  S
Al1339     O1348   1.790       .  S
C1340      O1353   1.263       .  A
C1340      C1539   1.487       .  S
O1341      C1351   1.262       .  A
O1341     Al1343   1.899       .  S
O1342      C1355   1.262       .  A
O1342     Al1352   1.887       .  S
Al1343     O1356   1.966       .  S
Al1343     O1353   1.952       .  S
Al1343     O1348   1.794       .  S
O1344      C1351   1.258       .  A
O1344     Al1352   1.889       .  S
O1345      C1354   1.252       .  A
O1345     Al1352   1.900       .  S
O1346     Al1352   1.881       .  S
O1347      C1354   1.247       .  A
O1348     Al1352   1.784       .  S
O1349      C1350   1.278       .  A
C1350      C1509   1.479       .  S
C1351      C1656   1.460       .  S
C1354      C1759   1.478       .  S
C1355      O1356   1.273       .  A
C1355      C1529   1.490       .  S
O1357      C1372   1.288       .  A
O1357     Al1365   1.946       .  S
C1358      O1368   1.286       .  A
C1358      O1359   1.286       .  A
C1358      C1476   1.503       .  S
O1359     Al1361   1.943       .  S
O1360      C1362   1.246       .  A
O1360     Al1361   1.890       .  S
Al1361     O1369   1.931       .  S
Al1361     O1371   1.929       .  S
Al1361     O1370   1.777       .  S
C1362      O1375   1.261       .  A
C1362      C1489   1.512       .  S
O1363      C1373   1.272       .  A
O1363     Al1365   1.948       .  S
O1364      C1377   1.262       .  A
O1364     Al1374   1.901       .  S
Al1365     O1378   1.919       .  S
Al1365     O1375   1.962       .  S
Al1365     O1370   1.765       .  S
O1366      C1373   1.250       .  A
O1366     Al1374   1.839       .  S
O1367      C1376   1.247       .  A
O1367     Al1374   1.904       .  S
O1368     Al1374   1.954       .  S
O1369      C1376   1.251       .  A
O1370     Al1374   1.751       .  S
O1371      C1372   1.288       .  A
C1372      C1516   1.479       .  S
C1373      C1699   1.478       .  S
C1376      C1619   1.488       .  S
C1377      O1378   1.262       .  A
C1377      C1496   1.493       .  S
O1379      C1394   1.289       .  A
O1379     Al1387   1.950       .  S
C1380      O1390   1.287       .  A
C1380      O1381   1.285       .  A
C1380      C1469   1.495       .  S
O1381     Al1383   1.943       .  S
O1382      C1384   1.243       .  A
O1382     Al1383   1.885       .  S
Al1383     O1391   1.918       .  S
Al1383     O1393   1.926       .  S
Al1383     O1392   1.774       .  S
C1384      O1397   1.261       .  A
C1384      C1486   1.511       .  S
O1385      C1395   1.272       .  A
O1385     Al1387   1.947       .  S
O1386      C1399   1.264       .  A
O1386     Al1396   1.907       .  S
Al1387     O1400   1.918       .  S
Al1387     O1397   1.966       .  S
Al1387     O1392   1.761       .  S
O1388      C1395   1.250       .  A
O1388     Al1396   1.837       .  S
O1389      C1398   1.247       .  A
O1389     Al1396   1.917       .  S
O1390     Al1396   1.963       .  S
O1391      C1398   1.249       .  A
O1392     Al1396   1.756       .  S
O1393      C1394   1.288       .  A
C1394      C1506   1.477       .  S
C1395      C1609   1.476       .  S
C1398      C1689   1.479       .  S
C1399      O1400   1.262       .  A
C1399      C1499   1.494       .  S
O1401      C1416   1.260       .  A
O1401     Al1409   1.863       .  S
C1402      O1412   1.253       .  A
C1402      O1403   1.275       .  A
C1402      C1479   1.490       .  S
O1403     Al1405   1.989       .  S
O1404      C1406   1.256       .  A
O1404     Al1405   1.861       .  S
Al1405     O1413   1.891       .  S
Al1405     O1415   1.978       .  S
Al1405     O1414   1.784       .  S
C1406      O1419   1.262       .  A
C1406      C1446   1.483       .  S
O1407      C1417   1.261       .  A
O1407     Al1409   1.899       .  S
O1408      C1421   1.255       .  A
O1408     Al1418   1.885       .  S
Al1409     O1422   1.956       .  S
Al1409     O1419   1.937       .  S
Al1409     O1414   1.789       .  S
O1410      C1417   1.270       .  A
O1410     Al1418   1.930       .  S
O1411      C1420   1.265       .  A
O1411     Al1418   1.913       .  S
O1412     Al1418   1.861       .  S
O1413      C1420   1.253       .  A
O1414     Al1418   1.759       .  S
O1415      C1416   1.278       .  A
C1416      C1579   1.477       .  S
C1417      C1626   1.465       .  S
C1420      C1719   1.477       .  S
C1421      O1422   1.265       .  A
C1421      C1456   1.475       .  S
O1423      C1438   1.251       .  A
O1423     Al1431   1.840       .  S
C1424      O1434   1.260       .  A
C1424      O1425   1.285       .  A
C1424      C1466   1.512       .  S
O1425     Al1427   2.017       .  S
O1426      C1428   1.252       .  A
O1426     Al1427   1.854       .  S
Al1427     O1435   1.903       .  S
Al1427     O1437   1.980       .  S
Al1427     O1436   1.787       .  S
C1428      O1441   1.262       .  A
C1428      C1449   1.471       .  S
O1429      C1439   1.255       .  A
O1429     Al1431   1.907       .  S
O1430      C1443   1.259       .  A
O1430     Al1440   1.861       .  S
Al1431     O1444   1.966       .  S
Al1431     O1441   1.930       .  S
Al1431     O1436   1.796       .  S
O1432      C1439   1.266       .  A
O1432     Al1440   1.936       .  S
O1433      C1442   1.262       .  A
O1433     Al1440   1.921       .  S
O1434     Al1440   1.862       .  S
O1435      C1442   1.251       .  A
O1436     Al1440   1.769       .  S
O1437      C1438   1.276       .  A
C1438      C1559   1.481       .  S
C1439      C1709   1.477       .  S
C1442      C1636   1.491       .  S
C1443      O1444   1.272       .  A
C1443      C1459   1.477       .  S
C1445      C1446   1.403       .  A
C1445      C1450   1.384       .  A
C1445      H1452   1.084       .  S
C1446      C1447   1.418       .  A
C1447      C1448   1.408       .  A
C1447     Br1454   1.921       .  S
C1448      C1449   1.405       .  A
C1448      H1453   1.083       .  S
C1449      C1450   1.406       .  A
C1450     Br1451   1.919       .  S
C1455      C1456   1.404       .  A
C1455      H1462   1.079       .  S
C1456      C1457   1.406       .  A
C1457     Br1464   1.914       .  S
C1458      C1459   1.404       .  A
C1458      H1463   1.084       .  S
C1459      C1460   1.407       .  A
C1460     Br1461   1.913       .  S
C1465      C1466   1.409       .  A
C1465      C1470   1.422   1_655  A
C1465      H1472   1.083       .  S
C1466      C1467   1.418       .  A
C1467      C1468   1.396   1_655  A
C1467     Br1474   1.896       .  S
C1468      C1469   1.390       .  A
C1468      H1473   1.081       .  S
C1469      C1470   1.419       .  A
C1470     Br1471   1.913       .  S
C1475      C1476   1.406       .  A
C1475      C1480   1.394       .  A
C1475      H1482   1.080       .  S
C1476      C1477   1.416       .  A
C1477      C1478   1.420   1_455  A
C1477     Br1484   1.916       .  S
C1478      C1479   1.411       .  A
C1478      H1483   1.083       .  S
C1479      C1480   1.407   1_655  A
C1480     Br1481   1.921   1_455  S
C1485      C1486   1.418       .  A
C1485      C1490   1.409       .  A
C1485      H1492   1.083       .  S
C1486      C1487   1.410       .  A
C1487      C1488   1.409       .  A
C1487     Br1494   1.919       .  S
C1488      C1489   1.418       .  A
C1488      H1493   1.083       .  S
C1489      C1490   1.412       .  A
C1490     Br1491   1.920       .  S
C1495      C1496   1.404       .  A
C1495      H1502   1.084       .  S
C1496      C1497   1.419       .  A
C1497     Br1504   1.921       .  S
C1498      C1499   1.404       .  A
C1498      H1503   1.083       .  S
C1499      C1500   1.418       .  A
C1500     Br1501   1.919       .  S
C1505      C1506   1.397       .  A
C1505      C1510   1.399       .  A
C1505      H1512   1.084       .  S
C1506      C1507   1.412       .  A
C1507      C1508   1.406       .  A
C1507     Br1514   1.912       .  S
C1508      C1509   1.402       .  A
C1508      H1513   1.084       .  S
C1509      C1510   1.413       .  A
C1510     Br1511   1.913       .  S
C1515      C1516   1.403       .  A
C1515      C1520   1.398       .  A
C1515      H1522   1.083       .  S
C1516      C1517   1.406       .  A
C1517      C1518   1.410       .  A
C1517     Br1524   1.916       .  S
C1518      C1519   1.409       .  A
C1518      H1523   1.083       .  S
C1519      C1520   1.409       .  A
C1520     Br1521   1.921       .  S
C1525      C1526   1.395       .  A
C1525      C1530   1.394       .  A
C1525      H1532   1.075       .  S
C1526      C1527   1.408       .  A
C1527      C1528   1.408       .  A
C1527     Br1534   1.917       .  S
C1528      C1529   1.411       .  A
C1528      H1533   1.083       .  S
C1529      C1530   1.413       .  A
C1530     Br1531   1.915       .  S
C1535      C1536   1.405       .  A
C1535      H1542   1.083       .  S
C1536      C1537   1.427   1_565  A
C1537     Br1544   1.924   1_545  S
C1538      C1539   1.397       .  A
C1538      H1543   1.084       .  S
C1539      C1540   1.416       .  A
C1540     Br1541   1.920       .  S
C1545      C1546   1.402       .  A
C1545      C1550   1.417       .  A
C1545      H1552   1.083       .  S
C1546      C1547   1.416       .  A
C1547      C1548   1.410       .  A
C1547     Br1554   1.911       .  S
C1548      C1549   1.402       .  A
C1548      H1553   1.083       .  S
C1549      C1550   1.420       .  A
C1550     Br1551   1.904       .  S
C1555      C1556   1.407       .  A
C1555      C1560   1.408       .  A
C1555      H1562   1.081       .  S
C1556      C1557   1.406       .  A
C1557      C1558   1.405       .  A
C1557     Br1564   1.918       .  S
C1558      C1559   1.410       .  A
C1558      H1563   1.084       .  S
C1559      C1560   1.407       .  A
C1560     Br1561   1.917       .  S
C1565      C1566   1.413       .  A
C1565      C1570   1.401       .  A
C1565      H1572   1.081       .  S
C1566      C1567   1.407       .  A
C1567      C1568   1.405       .  A
C1567     Br1574   1.917       .  S
C1568      C1569   1.412       .  A
C1568      H1573   1.084       .  S
C1569      C1570   1.404       .  A
C1570     Br1571   1.921       .  S
C1575      C1576   1.400       .  A
C1575      C1580   1.403       .  A
C1575      H1582   1.084       .  S
C1576      C1577   1.414       .  A
C1577      C1578   1.402       .  A
C1577     Br1584   1.914       .  S
C1578      C1579   1.399       .  A
C1578      H1583   1.084       .  S
C1579      C1580   1.411       .  A
C1580     Br1581   1.914       .  S
C1585      C1586   1.401       .  A
C1585      C1590   1.396       .  A
C1585      H1592   1.085       .  S
C1586      C1587   1.404       .  A
C1587      C1588   1.402       .  A
C1587     Br1594   1.913       .  S
C1588      C1589   1.408       .  A
C1588      H1593   1.082       .  S
C1589      C1590   1.412       .  A
C1590     Br1591   1.920       .  S
C1595      C1596   1.408       .  A
C1595      H1602   1.084       .  S
C1596      C1597   1.409       .  A
C1597     Br1604   1.919       .  S
C1598      C1599   1.412       .  A
C1598      H1603   1.083       .  S
C1599      C1600   1.415       .  A
C1600     Br1601   1.919       .  S
C1605      C1606   1.395       .  A
C1605      C1610   1.383       .  A
C1605      H1612   1.084       .  S
C1606      C1607   1.412       .  A
C1607      C1608   1.408       .  A
C1607     Br1614   1.909       .  S
C1608      C1609   1.404       .  A
C1608      H1613   1.082       .  S
C1609      C1610   1.418       .  A
C1610     Br1611   1.922       .  S
C1615      C1616   1.403       .  A
C1615      C1620   1.402       .  A
C1615      H1622   1.073       .  S
C1616      C1617   1.410       .  A
C1617      C1618   1.403       .  A
C1617     Br1624   1.914       .  S
C1618      C1619   1.408       .  A
C1618      H1623   1.083       .  S
C1619      C1620   1.413       .  A
C1620     Br1621   1.920       .  S
C1625      C1626   1.397       .  A
C1625      C1630   1.400       .  A
C1625      H1632   1.083       .  S
C1626      C1627   1.400       .  A
C1627      C1628   1.394       .  A
C1627     Br1634   1.909       .  S
C1628      C1629   1.409       .  A
C1628      H1633   1.080       .  S
C1629      C1630   1.418       .  A
C1630     Br1631   1.920       .  S
C1635      C1636   1.390       .  A
C1635      C1640   1.387       .  A
C1635      H1642   1.085       .  S
C1636      C1637   1.416       .  A
C1637      C1638   1.419       .  A
C1637     Br1644   1.916       .  S
C1638      C1639   1.412       .  A
C1638      H1643   1.082       .  S
C1639      C1640   1.439       .  A
C1645      C1646   1.412       .  A
C1645      C1650   1.404       .  A
C1645      H1652   1.082       .  S
C1646      C1647   1.413       .  A
C1647      C1648   1.393       .  A
C1647     Br1654   1.922       .  S
C1648      C1649   1.402       .  A
C1648      H1653   1.081       .  S
C1649      C1650   1.403       .  A
C1650     Br1651   1.913       .  S
C1655      C1656   1.400       .  A
C1655      C1660   1.383       .  A
C1655      H1662   1.085       .  S
C1656      C1657   1.404       .  A
C1657      C1658   1.399       .  A
C1657     Br1664   1.917       .  S
C1658      C1659   1.404       .  A
C1658      H1663   1.083       .  S
C1659      C1660   1.412       .  A
C1660     Br1661   1.925       .  S
C1665      C1666   1.411       .  A
C1665      C1670   1.421       .  A
C1665      H1672   1.083       .  S
C1666      C1667   1.401       .  A
C1667      C1668   1.379       .  A
C1667     Br1674   1.922       .  S
C1668      C1669   1.413       .  A
C1668      H1673   1.082       .  S
C1669      C1670   1.423       .  A
C1670     Br1671   1.913       .  S
C1675      C1676   1.411       .  A
C1675      C1680   1.409       .  A
C1675      H1682   1.083       .  S
C1676      C1677   1.414       .  A
C1677      C1678   1.406       .  A
C1677     Br1684   1.919       .  S
C1678      C1679   1.406       .  A
C1678      H1683   1.081       .  S
C1679      C1680   1.405       .  A
C1680     Br1681   1.921       .  S
C1685      C1686   1.417       .  A
C1685      C1690   1.411       .  A
C1685      H1692   1.082       .  S
C1686      C1687   1.424       .  A
C1687      C1688   1.389       .  A
C1687     Br1694   1.923   1_455  S
C1688      C1689   1.392       .  A
C1688      H1693   1.081       .  S
C1689      C1690   1.406       .  A
C1690     Br1691   1.915       .  S
C1695      C1696   1.388       .  A
C1695      C1700   1.384       .  A
C1695      H1702   1.084       .  S
C1696      C1697   1.416       .  A
C1697      C1698   1.407       .  A
C1697     Br1704   1.917       .  S
C1698      C1699   1.402       .  A
C1698      H1703   1.083       .  S
C1699      C1700   1.424       .  A
C1700     Br1701   1.925       .  S
C1705      C1706   1.414       .  A
C1705      C1710   1.410       .  A
C1705      H1712   1.082       .  S
C1706      C1707   1.420       .  A
C1707      C1708   1.390       .  A
C1707     Br1714   1.923       .  S
C1708      C1709   1.392       .  A
C1708      H1713   1.077       .  S
C1709      C1710   1.408       .  A
C1710     Br1711   1.919       .  S
C1715      C1716   1.411       .  A
C1715      C1720   1.416       .  A
C1715      H1722   1.082       .  S
C1716      C1717   1.438       .  A
C1717      C1718   1.381       .  A
C1718      C1719   1.385       .  A
C1718      H1723   1.086       .  S
C1719      C1720   1.414       .  A
C1720     Br1721   1.916       .  S
C1725      C1726   1.407       .  A
C1725      C1730   1.399       .  A
C1725      H1732   1.083       .  S
C1726      C1727   1.419       .  A
C1727      C1728   1.388       .  A
C1727     Br1734   1.927       .  S
C1728      C1729   1.398       .  A
C1728      H1733   1.083       .  S
C1729      C1730   1.405       .  A
C1730     Br1731   1.916       .  S
C1735      C1736   1.410       .  A
C1735      C1740   1.401       .  A
C1735      H1742   1.080       .  S
C1736      C1737   1.423       .  A
C1737      C1738   1.398       .  A
C1737     Br1744   1.923       .  S
C1738      C1739   1.396       .  A
C1738      H1743   1.084       .  S
C1739      C1740   1.402       .  A
C1740     Br1741   1.918       .  S
C1745      C1746   1.414       .  A
C1745      C1750   1.419       .  A
C1745      H1752   1.080       .  S
C1746      C1747   1.428       .  A
C1747      C1748   1.377       .  A
C1747     Br1754   1.937       .  S
C1748      C1749   1.395       .  A
C1748      H1753   1.085       .  S
C1749      C1750   1.413       .  A
C1750     Br1751   1.914       .  S
C1755      C1756   1.412       .  A
C1755      C1760   1.410       .  A
C1755      H1762   1.083       .  S
C1756      C1757   1.406       .  A
C1757      C1758   1.404       .  A
C1757     Br1764   1.918       .  S
C1758      C1759   1.403       .  A
C1758      H1763   1.080       .  S
C1759      C1760   1.406       .  A
C1760     Br1761   1.918       .  S
C1765      C1767   1.532       .  S
C1765      C1769   1.518       .  S
C1765      C1768   1.530       .  S
C1765      C2334   1.537       .  S
C1766      C1770   1.563       .  S
C1766      C1772   1.544       .  S
C1766      C1771   1.561       .  S
C1766      C2344   1.556       .  S
C1767      C1775   1.362       .  A
C1767      C1770   1.393       .  A
C1768      C1779   1.376       .  A
C1768      C1771   1.423       .  A
C1769      C1783   1.382       .  A
C1769      C1772   1.389       .  A
C1770      C1773   1.396       .  A
C1771      C1777   1.382       .  A
C1772      C1780   1.381       .  A
C1773      N1774   1.372       .  A
C1773      H1786   1.070       .  S
N1774      C1775   1.353       .  A
N1774      C2324   1.457       .  S
C1775      H1776   1.075       .  S
C1777      N1778   1.351       .  A
C1777      H1787   1.082       .  S
N1778      C1779   1.346       .  A
N1778      N1824   1.399       .  S
C1779      H1785   1.081       .  S
C1780      N1781   1.342       .  A
C1780      H1782   1.072       .  S
N1781      C1783   1.344       .  A
N1781      C2317   1.425       .  S
C1783      H1784   1.083       .  S
C1788      C1790   1.525       .  S
C1788      C1791   1.560       .  S
C1788      C2304   1.536       .  S
C1789      C1795   1.550   1_455  S
C1789      C1794   1.558       .  S
C1789      C2274   1.534       .  S
C1790      C1798   1.390       .  A
C1790      C1793   1.375   1_665  A
C1791      C1802   1.388       .  A
C1792      C1806   1.361       .  A
C1792      C1795   1.371       .  A
C1793      C1796   1.385       .  A
C1794      C1800   1.378       .  A
C1795      C1803   1.393       .  A
C1796      N1797   1.353   1_545  A
C1796      H1809   1.083       .  S
N1797      C1798   1.347   1_455  A
N1797      C2284   1.440       .  S
C1798      H1799   1.081       .  S
C1800      H1810   1.082       .  S
N1801      C1802   1.355   1_545  A
C1802      H1808   1.082       .  S
C1803      N1804   1.372       .  A
C1803      H1805   1.081       .  S
N1804      C1806   1.357       .  A
N1804      C2294   1.458       .  S
C1806      H1807   1.071       .  S
C1811      C1813   1.556       .  S
C1811      C1815   1.545       .  S
C1811      C2267   1.564       .  S
C1812      C1816   1.534       .  S
C1812      C1818   1.532       .  S
C1812      C2257   1.559       .  S
C1813      C1821   1.389       .  A
C1813      C1816   1.394       .  A
C1814      C1825   1.374       .  A
C1814      C1817   1.437       .  A
C1815      C1829   1.391       .  A
C1815      C1818   1.395       .  A
C1816      C1819   1.375       .  A
C1817      C1823   1.387       .  A
C1818      C1826   1.379       .  A
C1819      N1820   1.344       .  A
C1819      H1832   1.082       .  S
N1820      C1821   1.349       .  A
N1820      C2247   1.426       .  S
C1821      H1822   1.079       .  S
C1823      N1824   1.350       .  A
C1823      H1833   1.081       .  S
N1824      C1825   1.344       .  A
C1825      H1831   1.082       .  S
C1826      N1827   1.344       .  A
C1826      H1828   1.082       .  S
N1827      C1829   1.352       .  A
N1827      C2234   1.445       .  S
C1829      H1830   1.070       .  S
C1834      C1836   1.561   1_455  S
C1834      C1837   1.551       .  S
C1834      C2204   1.552       .  S
C1835      C1841   1.519   1_655  S
C1835      C1840   1.563       .  S
C1835      C2227   1.554       .  S
C1836      C1844   1.394       .  A
C1836      C1839   1.386       .  A
C1838      C1852   1.400       .  A
C1838      C1841   1.379       .  A
C1839      C1842   1.372       .  A
C1841      C1849   1.366       .  A
C1842      N1843   1.352       .  A
C1842      H1855   1.081       .  S
N1843      C1844   1.361       .  A
N1843      C2217   1.445       .  S
C1844      H1845   1.075       .  S
C1846      N1847   1.361       .  A
C1846      H1856   1.082       .  S
C1848      H1854   1.082       .  S
C1849      N1850   1.343       .  A
C1849      H1851   1.083       .  S
N1850      C1852   1.357       .  A
N1850      C2194   1.433       .  S
C1852      H1853   1.079       .  S
O1857      C1872   1.255       .  A
O1857     Al1865   1.868       .  S
C1858      O1868   1.264       .  A
C1858      O1859   1.285       .  A
C1858      C2154   1.487       .  S
O1859     Al1861   1.994       .  S
O1860      C1862   1.255       .  A
O1860     Al1861   1.878       .  S
Al1861     O1869   1.940       .  S
Al1861     O1871   1.958       .  S
Al1861     O1870   1.797       .  S
C1862      O1875   1.265       .  A
C1862      C2184   1.489       .  S
O1863      C1873   1.257       .  A
O1863     Al1865   1.935       .  S
O1864      C1877   1.268       .  A
O1864     Al1874   1.879       .  S
Al1865     O1878   1.954       .  S
Al1865     O1875   1.929       .  S
Al1865     O1870   1.791       .  S
O1866      C1873   1.245       .  A
O1866     Al1874   1.850       .  S
O1867      C1876   1.246       .  A
O1867     Al1874   1.853       .  S
O1868     Al1874   1.863       .  S
O1869      C1876   1.254       .  A
O1870     Al1874   1.769       .  S
O1871      C1872   1.271       .  A
C1872      C2164   1.487       .  S
C1873      C2237   1.465       .  S
C1876      C2337   1.485       .  S
C1877      O1878   1.277       .  A
C1877      C2177   1.479       .  S
O1879      C1894   1.284       .  A
O1879     Al1887   1.942       .  S
C1880      O1890   1.287       .  A
C1880      O1881   1.279       .  A
C1880      C2137   1.516       .  S
O1881     Al1883   1.944       .  S
O1882      C1884   1.246       .  A
O1882     Al1883   1.881       .  S
Al1883     O1891   1.956       .  S
Al1883     O1893   1.936       .  S
Al1883     O1892   1.779       .  S
C1884      O1897   1.255       .  A
C1884      C2187   1.496       .  S
O1885      C1895   1.270       .  A
O1885     Al1887   1.949       .  S
O1886      C1899   1.260       .  A
O1886     Al1896   1.902       .  S
Al1887     O1900   1.891       .  S
Al1887     O1897   1.927       .  S
Al1887     O1892   1.775       .  S
O1888      C1895   1.246       .  A
O1888     Al1896   1.828       .  S
O1889      C1898   1.245       .  A
O1889     Al1896   1.896       .  S
O1890     Al1896   1.981       .  S
O1891      C1898   1.257       .  A
O1892     Al1896   1.760       .  S
O1893      C1894   1.288       .  A
C1894      C2144   1.482       .  S
C1895      C2314   1.478       .  S
C1898      C2264   1.492       .  S
C1899      O1900   1.256       .  A
C1899      C2174   1.468       .  S
O1901      C1916   1.251       .  A
O1901     Al1909   1.843       .  S
C1902      O1912   1.260       .  A
C1902      O1903   1.283       .  A
C1902      C2157   1.493       .  S
O1903     Al1905   1.993       .  S
O1904      C1906   1.253       .  A
O1904     Al1905   1.865       .  S
Al1905     O1913   1.917       .  S
Al1905     O1915   1.971       .  S
Al1905     O1914   1.786       .  S
C1906      O1919   1.266       .  A
C1906      C2124   1.479       .  S
O1907      C1917   1.256       .  A
O1907     Al1909   1.908       .  S
O1908      C1921   1.259       .  A
O1908     Al1918   1.873       .  S
Al1909     O1922   1.956       .  S
Al1909     O1919   1.935       .  S
Al1909     O1914   1.785       .  S
O1910      C1917   1.259       .  A
O1910     Al1918   1.916       .  S
O1911      C1920   1.259       .  A
O1911     Al1918   1.920       .  S
O1912     Al1918   1.858       .  S
O1913      C1920   1.256       .  A
O1914     Al1918   1.770       .  S
O1915      C1916   1.273       .  A
C1916      C2107   1.476       .  S
C1917      C2327   1.468       .  S
C1920      C2254   1.489       .  S
C1921      O1922   1.273       .  A
C1921      C2114   1.461       .  S
O1923      C1938   1.257       .  A
O1923     Al1931   1.848       .  S
C1924      O1934   1.256       .  A
C1924      O1925   1.288       .  A
C1924      C2134   1.505       .  S
O1925     Al1927   2.019       .  S
O1926      C1928   1.251       .  A
O1926     Al1927   1.872       .  S
Al1927     O1935   1.917       .  S
Al1927     O1937   1.980       .  S
Al1927     O1936   1.776       .  S
C1928      O1941   1.262       .  A
C1928      C2127   1.484       .  S
O1929      C1939   1.262       .  A
O1929     Al1931   1.903       .  S
O1930      C1943   1.262       .  A
O1930     Al1940   1.882       .  S
Al1931     O1944   1.948       .  S
Al1931     O1941   1.939       .  S
Al1931     O1936   1.783       .  S
O1932      C1939   1.259       .  A
O1932     Al1940   1.892       .  S
O1933      C1942   1.253       .  A
O1933     Al1940   1.910       .  S
O1934     Al1940   1.855       .  S
O1935      C1942   1.251       .  A
O1936     Al1940   1.784       .  S
O1937      C1938   1.279       .  A
C1938      C2097   1.483       .  S
C1939      C2244   1.464       .  S
C1942      C2347   1.484       .  S
C1943      O1944   1.273       .  A
C1943      C2117   1.485       .  S
O1945      C1960   1.292       .  A
O1945     Al1953   1.962       .  S
C1946      O1956   1.287       .  A
C1946      O1947   1.287       .  A
C1946      C2064   1.509       .  S
O1947     Al1949   1.948       .  S
O1948      C1950   1.245       .  A
O1948     Al1949   1.897       .  S
Al1949     O1957   1.928       .  S
Al1949     O1959   1.924       .  S
Al1949     O1958   1.771       .  S
C1950      O1963   1.262       .  A
C1950      C2077   1.511       .  S
O1951      C1961   1.274       .  A
O1951     Al1953   1.964       .  S
O1952      C1965   1.263       .  A
O1952     Al1962   1.907       .  S
Al1953     O1966   1.919       .  S
Al1953     O1963   1.973       .  S
Al1953     O1958   1.762       .  S
O1954      C1961   1.251       .  A
O1954     Al1962   1.842       .  S
O1955      C1964   1.250       .  A
O1955     Al1962   1.916       .  S
O1956     Al1962   1.951       .  S
O1957      C1964   1.252       .  A
O1958     Al1962   1.752       .  S
O1959      C1960   1.288       .  A
C1960      C2104   1.483       .  S
C1961      C2287   1.486       .  S
C1964      C2207   1.493       .  S
C1965      O1966   1.262       .  A
C1965      C2084   1.491       .  S
O1967      C1982   1.289       .  A
O1967     Al1975   1.951       .  S
C1968      O1978   1.287       .  A
C1968      O1969   1.280       .  A
C1968      C2057   1.484       .  S
O1969     Al1971   1.923       .  S
O1970      C1972   1.246       .  A
O1970     Al1971   1.894       .  S
Al1971     O1979   1.933       .  S
Al1971     O1981   1.926       .  S
Al1971     O1980   1.780       .  S
C1972      O1985   1.262       .  A
C1972      C2074   1.509       .  S
O1973      C1983   1.272       .  A
O1973     Al1975   1.950       .  S
O1974      C1987   1.265       .  A
O1974     Al1984   1.907       .  S
Al1975     O1988   1.924       .  S
Al1975     O1985   1.967       .  S
Al1975     O1980   1.763       .  S
O1976      C1983   1.248       .  A
O1976     Al1984   1.833       .  S
O1977      C1986   1.246       .  A
O1977     Al1984   1.915       .  S
O1978     Al1984   1.958       .  S
O1979      C1986   1.251       .  A
O1980     Al1984   1.758       .  S
O1981      C1982   1.288       .  A
C1982      C2094   1.479       .  S
C1983      C2197   1.477       .  S
C1986      C2277   1.485       .  S
C1987      O1988   1.264       .  A
C1987      C2087   1.496       .  S
O1989      C2004   1.258       .  A
O1989     Al1997   1.856       .  S
C1990      O2000   1.252       .  A
C1990      O1991   1.280       .  A
C1990      C2067   1.494       .  S
O1991     Al1993   2.009       .  S
O1992      C1994   1.256       .  A
O1992     Al1993   1.872       .  S
Al1993     O2001   1.899       .  S
Al1993     O2003   1.994       .  S
Al1993     O2002   1.783       .  S
C1994      O2007   1.265       .  A
C1994      C2034   1.491       .  S
O1995      C2005   1.261       .  A
O1995     Al1997   1.899       .  S
O1996      C2009   1.254       .  A
O1996     Al2006   1.879       .  S
Al1997     O2010   1.966       .  S
Al1997     O2007   1.944       .  S
Al1997     O2002   1.785       .  S
O1998      C2005   1.269       .  A
O1998     Al2006   1.930       .  S
O1999      C2008   1.264       .  A
O1999     Al2006   1.912       .  S
O2000     Al2006   1.846       .  S
O2001      C2008   1.254       .  A
O2002     Al2006   1.757       .  S
O2003      C2004   1.282       .  A
C2004      C2167   1.481       .  S
C2005      C2214   1.465       .  S
C2008      C2307   1.480       .  S
C2009      O2010   1.269       .  A
C2009      C2044   1.474       .  S
O2011      C2026   1.251       .  A
O2011     Al2019   1.842       .  S
C2012      O2022   1.259       .  A
C2012      O2013   1.283       .  A
C2012      C2054   1.501       .  S
O2013     Al2015   2.005       .  S
O2014      C2016   1.254       .  A
O2014     Al2015   1.874       .  S
Al2015     O2023   1.925       .  S
Al2015     O2025   1.981       .  S
Al2015     O2024   1.785       .  S
C2016      O2029   1.263       .  A
C2016      C2037   1.478       .  S
O2017      C2027   1.254       .  A
O2017     Al2019   1.905       .  S
O2018      C2031   1.260       .  A
O2018     Al2028   1.869       .  S
Al2019     O2032   1.972       .  S
Al2019     O2029   1.936       .  S
Al2019     O2024   1.790       .  S
O2020      C2027   1.268       .  A
O2020     Al2028   1.944       .  S
O2021      C2030   1.263       .  A
O2021     Al2028   1.922       .  S
O2022     Al2028   1.856       .  S
O2023      C2030   1.256       .  A
O2024     Al2028   1.767       .  S
O2025      C2026   1.277       .  A
C2026      C2147   1.480       .  S
C2027      C2297   1.478       .  S
C2030      C2224   1.504       .  S
C2031      O2032   1.274       .  A
C2031      C2047   1.481       .  S
C2033      C2034   1.407       .  A
C2033      C2038   1.393       .  A
C2033      H2040   1.083       .  S
C2034      C2035   1.418       .  A
C2035      C2036   1.407       .  A
C2035     Br2042   1.921       .  S
C2036      C2037   1.404       .  A
C2036      H2041   1.082       .  S
C2037      C2038   1.407       .  A
C2038     Br2039   1.918       .  S
C2043      C2044   1.405       .  A
C2043      H2050   1.082       .  S
C2044      C2045   1.406       .  A
C2045     Br2052   1.911       .  S
C2046      C2047   1.405       .  A
C2046      H2051   1.084       .  S
C2047      C2048   1.407       .  A
C2048     Br2049   1.911       .  S
C2053      C2054   1.407       .  A
C2053      C2058   1.417   1_655  A
C2053      H2060   1.083       .  S
C2054      C2055   1.417       .  A
C2055      C2056   1.391   1_655  A
C2055     Br2062   1.894       .  S
C2056      C2057   1.387       .  A
C2056      H2061   1.081       .  S
C2057      C2058   1.417       .  A
C2058     Br2059   1.913       .  S
C2063      C2064   1.407       .  A
C2063      C2068   1.393   1_455  A
C2063      H2070   1.081       .  S
C2064      C2065   1.420       .  A
C2065      C2066   1.423   1_455  A
C2065     Br2072   1.916       .  S
C2066      C2067   1.412       .  A
C2066      H2071   1.083       .  S
C2067      C2068   1.410       .  A
C2068     Br2069   1.923       .  S
C2073      C2074   1.415       .  A
C2073      C2078   1.413       .  A
C2073      H2080   1.083       .  S
C2074      C2075   1.410       .  A
C2075      C2076   1.412       .  A
C2075     Br2082   1.918       .  S
C2076      C2077   1.416       .  A
C2076      H2081   1.083       .  S
C2077      C2078   1.412       .  A
C2078     Br2079   1.919       .  S
C2083      C2084   1.404       .  A
C2083      H2090   1.084       .  S
C2084      C2085   1.417       .  A
C2085     Br2092   1.922       .  S
C2086      C2087   1.403       .  A
C2086      H2091   1.083       .  S
C2087      C2088   1.418       .  A
C2088     Br2089   1.918       .  S
C2093      C2094   1.399       .  A
C2093      C2098   1.401       .  A
C2093      H2100   1.084       .  S
C2094      C2095   1.411       .  A
C2095      C2096   1.408       .  A
C2095     Br2102   1.915       .  S
C2096      C2097   1.404       .  A
C2096      H2101   1.083       .  S
C2097      C2098   1.416       .  A
C2098     Br2099   1.921       .  S
C2103      C2104   1.405       .  A
C2103      C2108   1.403       .  A
C2103      H2110   1.084       .  S
C2104      C2105   1.405       .  A
C2105      C2106   1.408       .  A
C2105     Br2112   1.915       .  S
C2106      C2107   1.409       .  A
C2106      H2111   1.083       .  S
C2107      C2108   1.409       .  A
C2108     Br2109   1.919       .  S
C2113      C2114   1.397       .  A
C2113      C2118   1.391       .  A
C2113      H2120   1.084       .  S
C2114      C2115   1.400       .  A
C2115      C2116   1.401       .  A
C2115     Br2122   1.915       .  S
C2116      C2117   1.412       .  A
C2116      H2121   1.083       .  S
C2117      C2118   1.418       .  A
C2118     Br2119   1.923       .  S
C2123      C2124   1.398       .  A
C2123      H2130   1.084       .  S
C2124      C2125   1.417       .  A
C2125     Br2132   1.919       .  S
C2126      C2127   1.400       .  A
C2126      H2131   1.084       .  S
C2127      C2128   1.415       .  A
C2128     Br2129   1.920       .  S
C2133      C2134   1.400       .  A
C2133      C2138   1.416       .  A
C2133      H2140   1.083       .  S
C2134      C2135   1.418       .  A
C2135      C2136   1.413       .  A
C2135     Br2142   1.912       .  S
C2136      C2137   1.403       .  A
C2136      H2141   1.083       .  S
C2137      C2138   1.424       .  A
C2138     Br2139   1.900       .  S
C2143      C2144   1.403       .  A
C2143      C2148   1.404       .  A
C2143      H2150   1.078       .  S
C2144      C2145   1.407       .  A
C2145      C2146   1.407       .  A
C2145     Br2152   1.918       .  S
C2146      C2147   1.410       .  A
C2146      H2151   1.084       .  S
C2147      C2148   1.407       .  A
C2148     Br2149   1.917       .  S
C2153      C2154   1.411       .  A
C2153      C2158   1.405       .  A
C2153      H2160   1.083       .  S
C2154      C2155   1.406       .  A
C2155      C2156   1.403       .  A
C2155     Br2162   1.919       .  S
C2156      C2157   1.414       .  A
C2156      H2161   1.084       .  S
C2157      C2158   1.408       .  A
C2158     Br2159   1.917       .  S
C2163      C2164   1.402       .  A
C2163      C2168   1.407       .  A
C2163      H2170   1.083       .  S
C2164      C2165   1.415       .  A
C2165      C2166   1.404       .  A
C2165     Br2172   1.916       .  S
C2166      C2167   1.401       .  A
C2166      H2171   1.084       .  S
C2167      C2168   1.414       .  A
C2168     Br2169   1.917       .  S
C2173      C2174   1.401       .  A
C2173      C2178   1.394       .  A
C2173      H2180   1.085       .  S
C2174      C2175   1.405       .  A
C2175      C2176   1.401       .  A
C2175     Br2182   1.914       .  S
C2176      C2177   1.407       .  A
C2176      H2181   1.082       .  S
C2177      C2178   1.412       .  A
C2178     Br2179   1.923       .  S
C2183      C2184   1.410       .  A
C2183      H2190   1.084       .  S
C2184      C2185   1.407       .  A
C2185     Br2192   1.920       .  S
C2186      C2187   1.413       .  A
C2186      H2191   1.083       .  S
C2187      C2188   1.414       .  A
C2188     Br2189   1.920       .  S
C2193      C2194   1.394       .  A
C2193      C2198   1.383       .  A
C2193      H2200   1.084       .  S
C2194      C2195   1.410       .  A
C2195      C2196   1.407       .  A
C2195     Br2202   1.910       .  S
C2196      C2197   1.405       .  A
C2196      H2201   1.082       .  S
C2197      C2198   1.419       .  A
C2198     Br2199   1.924       .  S
C2203      C2204   1.400       .  A
C2203      C2208   1.403       .  A
C2203      H2210   1.078       .  S
C2204      C2205   1.407       .  A
C2205      C2206   1.409       .  A
C2205     Br2212   1.917       .  S
C2206      C2207   1.410       .  A
C2206      H2211   1.083       .  S
C2207      C2208   1.417       .  A
C2208     Br2209   1.921       .  S
C2213      C2214   1.398       .  A
C2213      C2218   1.400       .  A
C2213      H2220   1.083       .  S
C2214      C2215   1.400       .  A
C2215      C2216   1.393       .  A
C2215     Br2222   1.908       .  S
C2216      C2217   1.407       .  A
C2216      H2221   1.081       .  S
C2217      C2218   1.416       .  A
C2218     Br2219   1.919       .  S
C2223      C2224   1.393       .  A
C2223      C2228   1.387       .  A
C2223      H2230   1.084       .  S
C2224      C2225   1.421       .  A
C2225      C2226   1.424       .  A
C2225     Br2232   1.915       .  S
C2226      C2227   1.412       .  A
C2226      H2231   1.082       .  S
C2227      C2228   1.438       .  A
C2233      C2234   1.412       .  A
C2233      C2238   1.402       .  A
C2233      H2240   1.082       .  S
C2234      C2235   1.409       .  A
C2235      C2236   1.396       .  A
C2235     Br2242   1.916       .  S
C2236      C2237   1.403       .  A
C2236      H2241   1.081       .  S
C2237      C2238   1.403       .  A
C2238     Br2239   1.915       .  S
C2243      C2244   1.401       .  A
C2243      C2248   1.382       .  A
C2243      H2250   1.082       .  S
C2244      C2245   1.407       .  A
C2245      C2246   1.400       .  A
C2245     Br2252   1.917       .  S
C2246      C2247   1.403       .  A
C2246      H2251   1.083       .  S
C2247      C2248   1.409       .  A
C2248     Br2249   1.925       .  S
C2253      C2254   1.409       .  A
C2253      C2258   1.418       .  A
C2253      H2260   1.083       .  S
C2254      C2255   1.402       .  A
C2255      C2256   1.386       .  A
C2255     Br2262   1.922       .  S
C2256      C2257   1.417       .  A
C2256      H2261   1.081       .  S
C2257      C2258   1.425       .  A
C2258     Br2259   1.913       .  S
C2263      C2264   1.412       .  A
C2263      C2268   1.409       .  A
C2263      H2270   1.083       .  S
C2264      C2265   1.412       .  A
C2265      C2266   1.408       .  A
C2265     Br2272   1.919       .  S
C2266      C2267   1.409       .  A
C2266      H2271   1.081       .  S
C2267      C2268   1.406       .  A
C2268     Br2269   1.920       .  S
C2273      C2274   1.416       .  A
C2273      C2278   1.413       .  A
C2273      H2280   1.081       .  S
C2274      C2275   1.423       .  A
C2275      C2276   1.390       .  A
C2275     Br2282   1.927   1_455  S
C2276      C2277   1.393       .  A
C2276      H2281   1.077       .  S
C2277      C2278   1.407       .  A
C2278     Br2279   1.914       .  S
C2283      C2284   1.390       .  A
C2283      C2288   1.383       .  A
C2283      H2290   1.084       .  S
C2284      C2285   1.418       .  A
C2285      C2286   1.414       .  A
C2285     Br2292   1.917       .  S
C2286      C2287   1.406       .  A
C2286      H2291   1.083       .  S
C2287      C2288   1.423       .  A
C2288     Br2289   1.926       .  S
C2293      C2294   1.413       .  A
C2293      C2298   1.410       .  A
C2293      H2300   1.082       .  S
C2294      C2295   1.418       .  A
C2295      C2296   1.389       .  A
C2295     Br2302   1.922       .  S
C2296      C2297   1.392       .  A
C2296      H2301   1.076       .  S
C2297      C2298   1.411       .  A
C2298     Br2299   1.919       .  S
C2303      C2304   1.411       .  A
C2303      C2308   1.417       .  A
C2303      H2310   1.082       .  S
C2304      C2305   1.439       .  A
C2305      C2306   1.382       .  A
C2306      C2307   1.385       .  A
C2306      H2311   1.086       .  S
C2307      C2308   1.413       .  A
C2308     Br2309   1.914       .  S
C2313      C2314   1.405       .  A
C2313      C2318   1.405       .  A
C2313      H2320   1.083       .  S
C2314      C2315   1.424       .  A
C2315      C2316   1.382       .  A
C2315     Br2322   1.915       .  S
C2316      C2317   1.385       .  A
C2316      H2321   1.084       .  S
C2317      C2318   1.408       .  A
C2318     Br2319   1.915       .  S
C2323      C2324   1.408       .  A
C2323      C2328   1.398       .  A
C2323      H2330   1.080       .  S
C2324      C2325   1.424       .  A
C2325      C2326   1.400       .  A
C2325     Br2332   1.922       .  S
C2326      C2327   1.395       .  A
C2326      H2331   1.083       .  S
C2327      C2328   1.406       .  A
C2328     Br2329   1.916       .  S
C2333      C2334   1.415       .  A
C2333      C2338   1.415       .  A
C2333      H2340   1.078       .  S
C2334      C2335   1.426       .  A
C2335      C2336   1.381       .  A
C2335     Br2342   1.938       .  S
C2336      C2337   1.397       .  A
C2336      H2341   1.085       .  S
C2337      C2338   1.409       .  A
C2338     Br2339   1.915       .  S
C2343      C2344   1.419       .  A
C2343      C2348   1.410       .  A
C2343      H2350   1.083       .  S
C2344      C2345   1.411       .  A
C2345      C2346   1.406       .  A
C2345     Br2352   1.913       .  S
C2346      C2347   1.403       .  A
C2346      H2351   1.084       .  S
C2347      C2348   1.407       .  A
C2348     Br2349   1.917       .  S
