geometry optimzed in LAMMPS
_audit_creation_date              2020-12-01 
_audit_creation_method            'lammps2cif' 
_symmetry_space_group_name_H-M    'P1' 
_symmetry_Int_Tables_number       1 
_symmetry_cell_setting            triclinic 
loop_ 
_symmetry_equiv_pos_as_xyz 
  x,y,z 
_cell_length_a                    56.31948581 
_cell_length_b                    56.32291455043668 
_cell_length_c                    39.725911707277895 
_cell_angle_alpha                 89.93854995956052 
_cell_angle_beta                  89.97667029913546 
_cell_angle_gamma                 120.73057025240418 
loop_ 
_atom_site_label 
_atom_site_type_symbol 
_atom_site_fract_x 
_atom_site_fract_y 
_atom_site_fract_z 
_atom_site_charge 
C1          C  0.21100152  0.37934250  0.52031167     0.80400
N2          N  0.19184402  0.36632477  0.49576783    -0.77900
C3          C  0.18270771  0.38037173  0.47722969     0.82800
N4          N  0.19247946  0.40751207  0.48394156    -0.77900
C5          C  0.21123749  0.42061288  0.50886893     0.82900
N6          N  0.22038279  0.40635232  0.52669620    -0.79600
C7          C  0.38218228  0.19343546  0.97642970     0.80400
N8          N  0.41009526  0.20954441  0.97769725    -0.77900
C9          C  0.42472094  0.20693771  0.00304042     0.82800
N10         N  0.41116762  0.18796678  0.02749232    -0.77900
C11         C  0.38319556  0.17193959  0.02711099     0.82900
N12         N  0.36880215  0.17464872  0.00140024    -0.79600
C13         C  0.19919572  0.38367766  0.95738797     0.80400
N14         N  0.21299378  0.41158095  0.95529240    -0.77900
C15         C  0.20685540  0.42670083  0.97610342     0.82800
N16         N  0.18696297  0.41338681  0.99983037    -0.77900
C17         C  0.17287646  0.38539655  0.00227997     0.82900
N18         N  0.17909089  0.37050017  0.98088223    -0.79600
C19         C  0.83262094  0.22612028  0.48527284     0.80400
N20         N  0.81684619  0.23798689  0.48280674    -0.77900
C21         C  0.79653134  0.23194060  0.50553466     0.82800
N22         N  0.79173399  0.21373442  0.53070726    -0.77900
C23         C  0.80723515  0.20164980  0.53355608     0.82900
N24         N  0.82743746  0.20775125  0.51049081    -0.79600
C25         C  0.81454318  0.21551992  0.02782027     0.80400
N26         N  0.81132173  0.19779140  0.00273888    -0.77900
C27         C  0.79416810  0.19353360  0.97649556     0.82800
N28         N  0.77992915  0.20707134  0.97566765    -0.77900
C29         C  0.78293480  0.22491342  0.00060077     0.82900
N30         N  0.80051195  0.22913651  0.02635293    -0.79600
C31         C  0.67573849  0.32326628  0.00266461     0.80400
N32         N  0.68849841  0.35109122  0.99935098    -0.77900
C33         C  0.67359607  0.36362915  0.99490713     0.82800
N34         N  0.64561644  0.34801816  0.99383236    -0.77900
C35         C  0.63251431  0.32005980  0.99658800     0.82900
N36         N  0.64777732  0.30790569  0.00118838    -0.79600
C37         C  0.78671594  0.61324003  0.02733170     0.80400
N38         N  0.80544680  0.62753538  0.00266130    -0.77900
C39         C  0.80817152  0.61412151  0.97590109     0.82800
N40         N  0.79229191  0.58622200  0.97413150    -0.77900
C41         C  0.77340536  0.57158478  0.99842598     0.82900
N42         N  0.77078133  0.58529687  0.02493028    -0.79600
O43         O  0.97939065  0.29549819  0.28427102    -0.72800
O44         O  0.03341163  0.31995191  0.20819985    -0.73800
O45         O  0.97520847  0.29476715  0.21278268    -0.62400
O46         O  0.03727947  0.32032037  0.27911171    -0.70800
O47         O  0.03269724  0.27876070  0.27796062    -0.70400
O48         O  0.97046709  0.25319581  0.21210912    -0.61600
O49         O  0.02864810  0.27833476  0.20615561    -0.74100
O50         O  0.97489982  0.25409744  0.28350897    -0.72900
Cu51       Cu  0.00644755  0.30905107  0.24605525     1.04600
Cu52       Cu  0.00154073  0.26464496  0.24480296     1.04300
C53         C  0.96888355  0.27113904  0.29641592     0.93400
C54         C  0.03953065  0.30307417  0.19511509     0.92500
C55         C  0.96288789  0.26986215  0.20213013     0.84700
C56         C  0.04435143  0.30334345  0.28949872     0.90900
C57         C  0.20444398  0.80194608  0.47771791     0.80400
N58         N  0.21709629  0.78696583  0.48036679    -0.77900
C59         C  0.20914945  0.76703242  0.50414994     0.82800
N60         N  0.18848261  0.76233156  0.52567634    -0.77900
C61         C  0.17538208  0.77692106  0.52335246     0.82900
N62         N  0.18354982  0.79676298  0.49926396    -0.79600
C63         C  0.31633042  0.66954998  0.52957242     0.80400
N64         N  0.30302108  0.64153180  0.53030026    -0.77900
C65         C  0.31721969  0.62802494  0.52872043     0.82800
N66         N  0.34525767  0.64292043  0.52677477    -0.77900
C67         C  0.35885820  0.67096492  0.52542426     0.82900
N68         N  0.34425493  0.68405352  0.52676511    -0.79600
C69         C  0.60763918  0.79670685  0.48427661     0.80400
N70         N  0.57984363  0.78162298  0.48805587    -0.77900
C71         C  0.56693888  0.78626598  0.51382459     0.82800
N72         N  0.58249013  0.80606880  0.53673620    -0.77900
C73         C  0.61049967  0.82113076  0.53396858     0.82900
N74         N  0.62293475  0.81645474  0.50747537    -0.79600
C75         C  0.38856680  0.18986293  0.53382188     0.80400
N76         N  0.41632504  0.20718450  0.53186810    -0.77900
C77         C  0.43118525  0.20303924  0.50813835     0.82800
N78         N  0.41820227  0.18144740  0.48664654    -0.77900
C79         C  0.39046395  0.16414616  0.48838944     0.82900
N80         N  0.37569493  0.16832965  0.51219468    -0.79600
C81         C  0.68174693  0.32229529  0.49336296     0.80400
N82         N  0.69416529  0.35032782  0.49161859    -0.77900
C83         C  0.67880813  0.36274532  0.49244084     0.82800
N84         N  0.65102182  0.34685257  0.49591974    -0.77900
C85         C  0.63835459  0.31899096  0.49831279     0.82900
N86         N  0.65384336  0.30683336  0.49683197    -0.79600
C87         C  0.78415763  0.61384028  0.47629679     0.80400
N88         N  0.80268050  0.62737431  0.50126065    -0.77900
C89         C  0.80683602  0.61317525  0.52589582     0.82800
N90         N  0.79165805  0.58508015  0.52584868    -0.77900
C91         C  0.77256526  0.57120623  0.50147562     0.82900
N92         N  0.76911046  0.58578000  0.47662149    -0.79600
C93         C  0.18220858  0.79017533  0.96932259     0.80400
N94         N  0.19770597  0.77798162  0.96803112    -0.77900
C95         C  0.21747973  0.78363857  0.99128423     0.82800
N96         N  0.22162138  0.80157053  0.01645431    -0.77900
C97         C  0.20622133  0.81377688  0.01842722     0.82900
N98         N  0.18656167  0.80803165  0.99481531    -0.79600
C99         C  0.31709684  0.67724956  0.98798580     0.80400
N100        N  0.30251369  0.64940772  0.98378540    -0.77900
C101        C  0.31558012  0.63499814  0.97903605     0.82800
N102        N  0.34371276  0.64876967  0.97890198    -0.77900
C103        C  0.35857092  0.67669656  0.98254949     0.82900
N104        N  0.34506297  0.69064143  0.98713437    -0.79600
C105        C  0.60818254  0.79760818  0.02234680     0.80400
N106        N  0.62246241  0.81944720  0.00128432    -0.77900
C107        C  0.60894629  0.82553010  0.97759587     0.82800
N108        N  0.58096432  0.80954648  0.97516049    -0.77900
C109        C  0.56649682  0.78814095  0.99676194     0.82900
N110        N  0.58027675  0.78221853  0.02006876    -0.79600
O111        O  0.73031748  0.98165421  0.71674224    -0.72800
O112        O  0.75966347  0.04020556  0.78802493    -0.73800
O113        O  0.72916982  0.98133087  0.78872957    -0.62400
O114        O  0.76027117  0.04030935  0.71656759    -0.70800
O115        O  0.72088900  0.04025870  0.71650585    -0.70400
O116        O  0.68988384  0.98143771  0.78731171    -0.61600
O117        O  0.71992235  0.03960520  0.78800115    -0.74100
O118        O  0.69114009  0.98194317  0.71551199    -0.72900
Cu119      Cu  0.74622726  0.01083107  0.75256158     1.04600
Cu120      Cu  0.70410711  0.01079643  0.75179509     1.04300
C121        C  0.70624782  0.97272103  0.70453363     0.93400
C122        C  0.74437387  0.04906282  0.79927694     0.92500
C123        C  0.70459625  0.97223981  0.79958206     0.84700
C124        C  0.74521215  0.04939634  0.70497996     0.90900
O125        O  0.68099228  0.72000907  0.21517559    -0.72800
O126        O  0.70917350  0.69114126  0.28673856    -0.73800
O127        O  0.67976439  0.71931762  0.28624979    -0.62400
O128        O  0.71053456  0.69181327  0.21545026    -0.70800
O129        O  0.75028335  0.73155123  0.21583354    -0.70400
O130        O  0.71925205  0.75920786  0.28718117    -0.61600
O131        O  0.74912334  0.73091120  0.28735847    -0.74100
O132        O  0.72068052  0.75999869  0.21531443    -0.72900
Cu133      Cu  0.69380132  0.70421227  0.25082841     1.04600
Cu134      Cu  0.73624464  0.74686833  0.25145517     1.04300
C135        C  0.69631144  0.74446507  0.20382636     0.93400
C136        C  0.73341342  0.70646407  0.29859699     0.92500
C137        C  0.69462172  0.74368497  0.29809376     0.84700
C138        C  0.73516323  0.70707891  0.20441581     0.90900
O139        O  0.25448064  0.95752982  0.29015468    -0.72800
O140        O  0.27987115  0.01886318  0.22286427    -0.73800
O141        O  0.25031662  0.96036386  0.21927323    -0.62400
O142        O  0.28419963  0.01580413  0.29390064    -0.70800
O143        O  0.32410450  0.01756091  0.28612023    -0.70400
O144        O  0.28928912  0.95964872  0.21525580    -0.61600
O145        O  0.31840505  0.01779361  0.21509223    -0.74100
O146        O  0.29454960  0.95921090  0.28560979    -0.72900
Cu147      Cu  0.26583591  0.98818555  0.25676756     1.04600
Cu148      Cu  0.30798813  0.98864420  0.25029022     1.04300
C149        C  0.27063199  0.94892795  0.29888781     0.93400
C150        C  0.30283623  0.02739122  0.20774045     0.92500
C151        C  0.26444567  0.95083131  0.20609880     0.84700
C152        C  0.30950598  0.02541240  0.30173521     0.90900
O153        O  0.96067098  0.68178061  0.71685997    -0.72800
O154        O  0.02122215  0.70729107  0.78445351    -0.73800
O155        O  0.96349264  0.68312630  0.78782575    -0.62400
O156        O  0.01838490  0.70566768  0.71347956    -0.70800
O157        O  0.02316117  0.74717186  0.71151322    -0.70400
O158        O  0.96836409  0.72467256  0.78792300    -0.61600
O159        O  0.02681102  0.74925873  0.78289445    -0.74100
O160        O  0.96495206  0.72305852  0.71610216    -0.72900
Cu161      Cu  0.99077610  0.69309063  0.75068897     1.04600
Cu162      Cu  0.99599492  0.73755711  0.74965684     1.04300
C163        C  0.95320279  0.69820677  0.70549609     0.93400
C164        C  0.03375564  0.73240925  0.79412318     0.92500
C165        C  0.95708483  0.70014008  0.79980033     0.84700
C166        C  0.02920129  0.72961945  0.70024643     0.90900
O167        O  0.24612349  0.26425241  0.70918771    -0.72800
O168        O  0.26776569  0.23286871  0.78601963    -0.73800
O169        O  0.24290391  0.26575036  0.78005965    -0.62400
O170        O  0.27075690  0.23146063  0.71469241    -0.70800
O171        O  0.31234571  0.26917791  0.71711608    -0.70400
O172        O  0.28390157  0.30406517  0.78059880    -0.61600
O173        O  0.30866280  0.27142997  0.78787625    -0.74100
O174        O  0.28794391  0.30181016  0.70961670    -0.72900
Cu175      Cu  0.25542633  0.24723877  0.74750721     1.04600
Cu176      Cu  0.29964555  0.28792937  0.74889381     1.04300
C177        C  0.26369703  0.28791000  0.69721335     0.93400
C178        C  0.29178709  0.24721539  0.79897752     0.92500
C179        C  0.25880975  0.29033703  0.79057750     0.84700
C180        C  0.29598302  0.24509847  0.70534096     0.90900
C181        C  0.62451350  0.84815212  0.95310238    -0.11800
C182        C  0.64766928  0.87383215  0.96233051     0.03600
C183        C  0.66165747  0.89432820  0.93785133    -0.12400
C184        C  0.65306928  0.88966408  0.90415309     0.18500
C185        C  0.63009632  0.86411444  0.89495067    -0.09400
C186        C  0.61594571  0.84374539  0.91933546    -0.02400
H187        H  0.67915893  0.91408869  0.94515123     0.05000
C188        C  0.66769363  0.91181934  0.87891756     0.20500
H189        H  0.59831810  0.82417784  0.91173157     0.10200
C190        C  0.68603890  0.91037745  0.85631450    -0.15700
C191        C  0.69872129  0.93000069  0.83060292     0.03200
C192        C  0.69293271  0.95152049  0.82711847    -0.11100
C193        C  0.67479865  0.95302415  0.85022249    -0.01100
C194        C  0.66235473  0.93353396  0.87600827    -0.06300
H195        H  0.69004616  0.89354067  0.85828553     0.06200
H196        H  0.67020198  0.96945125  0.84819957     0.09600
Br197      Br  0.61706470  0.85628189  0.84940148    -0.06000
Br198      Br  0.66015076  0.88288448  0.00803447    -0.02900
Br199      Br  0.72199509  0.92494106  0.79982697    -0.00100
Br200      Br  0.63743703  0.93676523  0.90600002    -0.04400
C201        C  0.62269058  0.79083070  0.04802899    -0.11800
C202        C  0.61542270  0.76326668  0.05449047     0.03600
C203        C  0.62847634  0.75751390  0.08038325    -0.12400
C204        C  0.64858153  0.77874342  0.10037814     0.18500
C205        C  0.65630911  0.80630716  0.09358331    -0.09400
C206        C  0.64348919  0.81218229  0.06738202    -0.02400
H207        H  0.62286082  0.73631708  0.08506585     0.05000
C208        C  0.66124642  0.77147339  0.12796471     0.20500
H209        H  0.64916336  0.83338720  0.06281909     0.10200
C210        C  0.68905187  0.77889856  0.12552293    -0.15700
C211        C  0.70112421  0.77062604  0.15011434     0.03200
C212        C  0.68517598  0.75468389  0.17774692    -0.11100
C213        C  0.65740005  0.74739322  0.18013082    -0.01100
C214        C  0.64538962  0.75564152  0.15559797    -0.06300
H215        H  0.70119047  0.79056255  0.10389678     0.06200
H216        H  0.64492421  0.73519165  0.20128175     0.09600
Br217      Br  0.68312938  0.83634887  0.12049656    -0.06000
Br218      Br  0.58885146  0.73266011  0.02797118    -0.02900
Br219      Br  0.73851799  0.77954564  0.14298173    -0.00100
Br220      Br  0.60732778  0.74492575  0.16115048    -0.04400
C221        C  0.38920572  0.69183258  0.98238070    -0.11800
C222        C  0.40502434  0.71857718  0.96830523     0.03600
C223        C  0.43384890  0.73263189  0.97005217    -0.12400
C224        C  0.44759516  0.72064293  0.98544396     0.18500
C225        C  0.43194601  0.69392230  0.99931356    -0.09400
C226        C  0.40304148  0.67968854  0.99743949    -0.02400
H227        H  0.44568470  0.75322555  0.95946469     0.05000
C228        C  0.47814914  0.73698424  0.98795867     0.20500
H229        H  0.39131878  0.65925473  0.00846641     0.10200
C230        C  0.49041849  0.74506981  0.01980774    -0.15700
C231        C  0.51907893  0.76166126  0.02325329     0.03200
C232        C  0.53608265  0.77086196  0.99432903    -0.11100
C233        C  0.52376311  0.76300134  0.96243244    -0.01100
C234        C  0.49510353  0.74605156  0.95907384    -0.06300
H235        H  0.47754257  0.73875307  0.04214443     0.06200
H236        H  0.53653402  0.76964434  0.94000997     0.09600
Br237      Br  0.44907970  0.67593102  0.02078977    -0.06000
Br238      Br  0.38892913  0.73680970  0.94488090    -0.02900
Br239      Br  0.53341326  0.77245077  0.06805051    -0.00100
Br240      Br  0.48023397  0.73506004  0.91457977    -0.04400
C241        C  0.21236064  0.83438553  0.04499536    -0.11800
C242        C  0.19155495  0.83528754  0.06380526     0.03600
C243        C  0.19895048  0.85482092  0.08951197    -0.12400
C244        C  0.22680810  0.87342814  0.09687301     0.18500
C245        C  0.24750737  0.87265039  0.07794902    -0.09400
C246        C  0.24018578  0.85323759  0.05234718    -0.02400
H247        H  0.18295192  0.85501717  0.10444676     0.05000
C248        C  0.23411268  0.89231008  0.12574944     0.20500
H249        H  0.25639734  0.85289503  0.03803985     0.10200
C250        C  0.24577858  0.88759346  0.15426934    -0.15700
C251        C  0.25493660  0.90604331  0.18119927     0.03200
C252        C  0.25231091  0.92959079  0.17985440    -0.11100
C253        C  0.23942551  0.93363693  0.15204727    -0.01100
C254        C  0.23046605  0.91523762  0.12492321    -0.06300
H255        H  0.24815177  0.86970969  0.15529895     0.06200
H256        H  0.23736885  0.95170252  0.15081640     0.09600
Br257      Br  0.28609216  0.89781504  0.08593158    -0.06000
Br258      Br  0.15299807  0.80894678  0.05788561    -0.02900
Br259      Br  0.27004725  0.89765371  0.21965133    -0.00100
Br260      Br  0.21499672  0.92312911  0.08653690    -0.04400
C261        C  0.05601148  0.74169979  0.81904109    -0.11800
C262        C  0.08118706  0.76690097  0.81547878     0.03600
C263        C  0.10162153  0.77495108  0.84008590    -0.12400
C264        C  0.09738871  0.75806536  0.86807926     0.18500
C265        C  0.07230160  0.73288727  0.87160032    -0.09400
C266        C  0.05191386  0.72480618  0.84702750    -0.02400
H267        H  0.12103999  0.79417384  0.83712444     0.05000
C268        C  0.11950498  0.76685663  0.89318350     0.20500
H269        H  0.03261692  0.70544727  0.85003807     0.10200
C270        C  0.12482489  0.78827799  0.91536691    -0.15700
C271        C  0.14522201  0.79673989  0.94014976     0.03200
C272        C  0.16063379  0.78323957  0.94318337    -0.11100
C273        C  0.15534833  0.76209160  0.92005370    -0.01100
C274        C  0.13526510  0.75407978  0.89517034    -0.06300
H275        H  0.11291336  0.79843432  0.91340535     0.06200
H276        H  0.16684429  0.75147717  0.92110766     0.09600
Br277      Br  0.06479107  0.70919552  0.90984102    -0.06000
Br278      Br  0.08954766  0.78998356  0.77643413    -0.02900
Br279      Br  0.15068241  0.82724474  0.96750469    -0.00100
Br280      Br  0.13046875  0.72595643  0.86394386    -0.04400
C281        C  0.23307810  0.76904346  0.99080290    -0.11800
C282        C  0.24073524  0.76143602  0.96060460     0.03600
C283        C  0.25453324  0.74669864  0.96195990    -0.12400
C284        C  0.26037682  0.73872713  0.99287340     0.18500
C285        C  0.25305720  0.74658451  0.02296770    -0.09400
C286        C  0.23978949  0.76179897  0.02171105    -0.02400
H287        H  0.26060081  0.74122148  0.93869016     0.05000
C288        C  0.27421585  0.72237265  0.99302993     0.20500
H289        H  0.23388390  0.76721877  0.04513887     0.10200
C290        C  0.30038752  0.73346934  0.00773368    -0.15700
C291        C  0.31446096  0.71896183  0.00742721     0.03200
C292        C  0.30251851  0.69290236  0.99135722    -0.11100
C293        C  0.27605174  0.68175015  0.97718571    -0.01100
C294        C  0.26191525  0.69612697  0.97794715    -0.06300
H295        H  0.30994879  0.75361553  0.01955551     0.06200
H296        H  0.26632827  0.66186931  0.96487435     0.09600
Br297      Br  0.25915017  0.73573266  0.06641584    -0.06000
Br298      Br  0.23405169  0.77122697  0.91675395    -0.02900
Br299      Br  0.34906049  0.73560984  0.03104586    -0.00100
Br300      Br  0.22559442  0.67868260  0.95859885    -0.04400
C301        C  0.93125846  0.68796241  0.67939104    -0.11800
C302        C  0.91679570  0.70156685  0.67050451     0.03600
C303        C  0.89581604  0.68987582  0.64619588    -0.12400
C304        C  0.88921428  0.66509903  0.63010420     0.18500
C305        C  0.90443551  0.65234193  0.63769992    -0.09400
C306        C  0.92483817  0.66349496  0.66236674    -0.02400
H307        H  0.88454330  0.70011327  0.63983801     0.05000
C308        C  0.86702674  0.65308478  0.60463704     0.20500
H309        H  0.93609117  0.65306947  0.66774790     0.10200
C310        C  0.87166174  0.66575183  0.57304872    -0.15700
C311        C  0.85239856  0.65340716  0.54703361     0.03200
C312        C  0.82761557  0.62794438  0.55271203    -0.11100
C313        C  0.82283163  0.61579663  0.58481494    -0.01100
C314        C  0.84220346  0.62810628  0.61062369    -0.06300
H315        H  0.89090296  0.68482170  0.56822125     0.06200
H316        H  0.80392676  0.59650787  0.58993181     0.09600
Br317      Br  0.89907510  0.62032755  0.61387750    -0.06000
Br318      Br  0.92404258  0.73576683  0.69026854    -0.02900
Br319      Br  0.86279176  0.67135827  0.50390169    -0.00100
Br320      Br  0.83398259  0.60988671  0.65355176    -0.04400
C321        C  0.78023827  0.62968394  0.44934618    -0.11800
C322        C  0.77537509  0.62061595  0.41555177     0.03600
C323        C  0.77017109  0.63541331  0.39134404    -0.12400
C324        C  0.77027715  0.65956290  0.39996580     0.18500
C325        C  0.77647802  0.66945344  0.43319296    -0.09400
C326        C  0.78139412  0.65453557  0.45757928    -0.02400
H327        H  0.76579123  0.62793075  0.36567642     0.05000
C328        C  0.76193701  0.67298866  0.37451840     0.20500
H329        H  0.78562252  0.66214050  0.48321223     0.10200
C330        C  0.73608980  0.67074876  0.37785850    -0.15700
C331        C  0.72661359  0.68183524  0.35352904     0.03200
C332        C  0.74327239  0.69564978  0.32539583    -0.11100
C333        C  0.76939995  0.69842480  0.32238819    -0.01100
C334        C  0.77865545  0.68687368  0.34649030    -0.06300
H335        H  0.72312671  0.66005752  0.39932612     0.06200
H336        H  0.78228925  0.70891992  0.30078726     0.09600
Br337      Br  0.77872009  0.70336939  0.44611286    -0.06000
Br338      Br  0.77729611  0.58934758  0.40019802    -0.02900
Br339      Br  0.69125376  0.67842944  0.36065829    -0.00100
Br340      Br  0.81408573  0.69043408  0.34004036    -0.04400
C341        C  0.69220649  0.39337253  0.49142386    -0.11800
C342        C  0.67866039  0.40679915  0.47839788     0.03600
C343        C  0.69135222  0.43558321  0.48034557    -0.12400
C344        C  0.71778196  0.45169869  0.49422101     0.18500
C345        C  0.73163891  0.43849726  0.50634138    -0.09400
C346        C  0.71885955  0.40967335  0.50491992    -0.02400
H347        H  0.68060483  0.44552938  0.47065700     0.05000
C348        C  0.73057947  0.48219029  0.49584271     0.20500
H349        H  0.72974675  0.39996407  0.51487856     0.10200
C350        C  0.73615810  0.49523191  0.52732475    -0.15700
C351        C  0.74910777  0.52402503  0.52991302     0.03200
C352        C  0.75699081  0.54048506  0.50046774    -0.11100
C353        C  0.75031025  0.52720479  0.46899955    -0.01100
C354        C  0.73720384  0.49843315  0.46648626    -0.06300
H355        H  0.73032537  0.48285818  0.55009923     0.06200
H356        H  0.75591559  0.53927516  0.44605099     0.09600
Br357      Br  0.76839740  0.45899382  0.52419501    -0.06000
Br358      Br  0.64373372  0.38767263  0.45549386    -0.02900
Br359      Br  0.75370543  0.53914512  0.57433531    -0.00100
Br360      Br  0.72988885  0.48251271  0.42227923    -0.04400
C361        C  0.37235094  0.19505608  0.55834059    -0.11800
C362        C  0.36550973  0.21545182  0.55235534     0.03600
C363        C  0.35068001  0.22058472  0.57652632    -0.12400
C364        C  0.34293951  0.20589279  0.60694945     0.18500
C365        C  0.34934451  0.18509312  0.61265926    -0.09400
C366        C  0.36384544  0.17969777  0.58822452    -0.02400
H367        H  0.34589076  0.23669881  0.57203839     0.05000
C368        C  0.33015381  0.21415393  0.63326305     0.20500
H369        H  0.36900688  0.16385104  0.59284189     0.10200
C370        C  0.30295758  0.20833719  0.62922081    -0.15700
C371        C  0.29116695  0.21790847  0.65260756     0.03200
C372        C  0.30668141  0.23324119  0.68080744    -0.11100
C373        C  0.33389030  0.23900896  0.68462241    -0.01100
C374        C  0.34575138  0.22989053  0.66097613    -0.06300
H375        H  0.29118738  0.19701048  0.60730512     0.06200
H376        H  0.34622316  0.25118236  0.70577836     0.09600
Br377      Br  0.33922128  0.16407895  0.65363890    -0.06000
Br378      Br  0.37638009  0.23697105  0.51176854    -0.02900
Br379      Br  0.25515775  0.21203217  0.64271869    -0.00100
Br380      Br  0.38399313  0.24124125  0.66620116    -0.04400
C381        C  0.37679070  0.14139335  0.46398641    -0.11800
C382        C  0.35182043  0.13495664  0.44801770     0.03600
C383        C  0.34106120  0.11489710  0.42278741    -0.12400
C384        C  0.35445872  0.10065696  0.41352798     0.18500
C385        C  0.37885543  0.10640094  0.43020593    -0.09400
C386        C  0.38995788  0.12682468  0.45497562    -0.02400
H387        H  0.32239135  0.11071925  0.40984773     0.05000
C388        C  0.34321260  0.08077284  0.38545038     0.20500
H389        H  0.40896419  0.13132519  0.46729993     0.10200
C390        C  0.35876880  0.08632187  0.35581993    -0.15700
C391        C  0.34839083  0.06838088  0.32833523     0.03200
C392        C  0.32157241  0.04495420  0.32991255    -0.11100
C393        C  0.30602754  0.03950212  0.35954491    -0.01100
C394        C  0.31682574  0.05692588  0.38739796    -0.06300
H395        H  0.37902124  0.10471539  0.35407813     0.06200
H396        H  0.28570926  0.02120012  0.36136211     0.09600
Br397      Br  0.39728022  0.08640309  0.42065067    -0.06000
Br398      Br  0.33247575  0.15409046  0.45750423    -0.02900
Br399      Br  0.37133372  0.07755098  0.28904081    -0.00100
Br400      Br  0.29550986  0.04649491  0.42815469    -0.04400
C401        C  0.46135973  0.22106761  0.50652613    -0.11800
C402        C  0.47517617  0.23231560  0.47580498     0.03600
C403        C  0.50403435  0.24781073  0.47507453    -0.12400
C404        C  0.51938006  0.25214692  0.50456163     0.18500
C405        C  0.50558521  0.24119444  0.53525559    -0.09400
C406        C  0.47675738  0.22597063  0.53609226    -0.02400
H407        H  0.51457646  0.25661583  0.45146576     0.05000
C408        C  0.54975688  0.26885027  0.50310048     0.20500
H409        H  0.46632870  0.21719363  0.55978327     0.10200
C410        C  0.56314601  0.29536741  0.51703432    -0.15700
C411        C  0.59192034  0.31181628  0.51661520     0.03200
C412        C  0.60787172  0.30191772  0.50117387    -0.11100
C413        C  0.59424596  0.27506122  0.48765357    -0.01100
C414        C  0.56545274  0.25853780  0.48862870    -0.06300
H415        H  0.55108564  0.30313388  0.52878036     0.06200
H416        H  0.60597811  0.26689845  0.47599333     0.09600
Br417      Br  0.52533558  0.24541812  0.57626564    -0.06000
Br418      Br  0.45567946  0.22834486  0.43458439    -0.02900
Br419      Br  0.60765176  0.34647811  0.53995365    -0.00100
Br420      Br  0.54844776  0.22173039  0.47095574    -0.04400
C421        C  0.62725505  0.84356290  0.55839947    -0.11800
C422        C  0.61889031  0.84270767  0.59223196     0.03600
C423        C  0.63438981  0.86523407  0.61342789    -0.12400
C424        C  0.65846581  0.88866064  0.60201711     0.18500
C425        C  0.66763101  0.88926544  0.56895327    -0.09400
C426        C  0.65203069  0.86687609  0.54743000    -0.02400
H427        H  0.62760855  0.86448370  0.63921411     0.05000
C428        C  0.67325065  0.91212781  0.62535127     0.20500
H429        H  0.65908734  0.86799517  0.52175425     0.10200
C430        C  0.69216492  0.91211180  0.64818868    -0.15700
C431        C  0.70355088  0.93182409  0.67387367     0.03200
C432        C  0.69583402  0.95201673  0.67706351    -0.11100
C433        C  0.67732481  0.95226686  0.65350965    -0.01100
C434        C  0.66610626  0.93259770  0.62782333    -0.06300
H435        H  0.69736246  0.89607195  0.64669878     0.06200
H436        H  0.67135944  0.96773554  0.65519316     0.09600
Br437      Br  0.70109340  0.92029084  0.55223635    -0.06000
Br438      Br  0.58773827  0.81107376  0.61226331    -0.02900
Br439      Br  0.72755006  0.92831339  0.70514394    -0.00100
Br440      Br  0.64031640  0.93375695  0.59732992    -0.04400
C441        C  0.62110729  0.79114992  0.45557348    -0.11800
C442        C  0.60698779  0.77894616  0.42510690     0.03600
C443        C  0.62013085  0.77270320  0.39973387    -0.12400
C444        C  0.64706508  0.77787747  0.40385253     0.18500
C445        C  0.66156231  0.79091358  0.43353868    -0.09400
C446        C  0.64861397  0.79748487  0.45893620    -0.02400
H447        H  0.60906718  0.76336273  0.37657582     0.05000
C448        C  0.65933980  0.76912753  0.37702206     0.20500
H449        H  0.65994480  0.80687875  0.48190030     0.10200
C450        C  0.68290041  0.78902431  0.35974688    -0.15700
C451        C  0.69487190  0.78150538  0.33408713     0.03200
C452        C  0.68301158  0.75335788  0.32494664    -0.11100
C453        C  0.65910726  0.73356707  0.34213533    -0.01100
C454        C  0.64732264  0.74116124  0.36783152    -0.06300
H455        H  0.69196363  0.81065420  0.36616113     0.06200
H456        H  0.64957427  0.71186557  0.33590681     0.09600
Br457      Br  0.69853170  0.79886272  0.44146383    -0.06000
Br458      Br  0.57012131  0.77077502  0.41525425    -0.02900
Br459      Br  0.72670249  0.81113494  0.31227259    -0.00100
Br460      Br  0.61527854  0.71231373  0.39030633    -0.04400
C461        C  0.38929162  0.68716354  0.52227828    -0.11800
C462        C  0.40271915  0.71001003  0.50022152     0.03600
C463        C  0.43158866  0.72557543  0.49909976    -0.12400
C464        C  0.44748392  0.71868819  0.51944743     0.18500
C465        C  0.43422021  0.69566226  0.54098796    -0.09400
C466        C  0.40533010  0.67999412  0.54212994    -0.02400
H467        H  0.44172374  0.74305083  0.48210600     0.05000
C468        C  0.47790145  0.73588327  0.51799447     0.20500
H469        H  0.39537172  0.66253609  0.55915839     0.10200
C470        C  0.49134488  0.76079777  0.53580251    -0.15700
C471        C  0.52016198  0.77779620  0.53483783     0.03200
C472        C  0.53620989  0.76945509  0.51630392    -0.11100
C473        C  0.52230478  0.74443120  0.49821907    -0.01100
C474        C  0.49352279  0.72800000  0.49853555    -0.06300
H475        H  0.47924702  0.76726062  0.55013501     0.06200
H476        H  0.53378916  0.73755423  0.48336162     0.09600
Br477      Br  0.45485896  0.68545625  0.56986091    -0.06000
Br478      Br  0.38291857  0.71998249  0.46949471    -0.02900
Br479      Br  0.53527627  0.81277170  0.55723832    -0.00100
Br480      Br  0.47631106  0.69550957  0.47095019    -0.04400
C481        C  0.26126268  0.92667698  0.32420191    -0.11800
C482        C  0.27976500  0.92494098  0.34670360     0.03600
C483        C  0.26976017  0.90348693  0.37025866    -0.12400
C484        C  0.24152162  0.88386795  0.37217228     0.18500
C485        C  0.22302444  0.88560941  0.35005131    -0.09400
C486        C  0.23294695  0.90683789  0.32623619    -0.02400
H487        H  0.28396767  0.90246111  0.38774770     0.05000
C488        C  0.23156974  0.86260479  0.39864985     0.20500
H489        H  0.21843955  0.90780650  0.30922360     0.10200
C490        C  0.22144298  0.86702623  0.42871642    -0.15700
C491        C  0.21245787  0.84770526  0.45489477     0.03200
C492        C  0.21321995  0.82314210  0.45089105    -0.11100
C493        C  0.22343189  0.81893928  0.42051686    -0.01100
C494        C  0.23269054  0.83844976  0.39462317    -0.06300
H495        H  0.22101393  0.88590975  0.43202822     0.06200
H496        H  0.22418536  0.80029424  0.41673601     0.09600
Br497      Br  0.18408252  0.85952065  0.35175973    -0.06000
Br498      Br  0.31840038  0.95234463  0.34875415    -0.02900
Br499      Br  0.20169897  0.85751790  0.49601570    -0.00100
Br500      Br  0.24669407  0.83132335  0.35422816    -0.04400
C501        C  0.15331762  0.77162055  0.54809985    -0.11800
C502        C  0.13250183  0.77822090  0.54215455     0.03600
C503        C  0.11225128  0.77212304  0.56667153    -0.12400
C504        C  0.11215535  0.75949998  0.59710720     0.18500
C505        C  0.13272440  0.75296175  0.60315381    -0.09400
C506        C  0.15298242  0.75903637  0.57890640    -0.02400
H507        H  0.09620803  0.77690050  0.56180052     0.05000
C508        C  0.09002014  0.75243514  0.62198650     0.20500
H509        H  0.16870099  0.75394534  0.58445121     0.10200
C510        C  0.06950139  0.72471924  0.62630777    -0.15700
C511        C  0.04908453  0.71686498  0.65091051     0.03200
C512        C  0.04914672  0.73710301  0.67214200    -0.11100
C513        C  0.06926430  0.76502579  0.66686360    -0.01100
C514        C  0.08957429  0.77276105  0.64203630    -0.06300
H515        H  0.06950686  0.70900907  0.61045539     0.06200
H516        H  0.06968402  0.78093244  0.68271921     0.09600
Br517      Br  0.13430144  0.73615799  0.64450977    -0.06000
Br518      Br  0.12904101  0.79400155  0.50089943    -0.02900
Br519      Br  0.02131707  0.67829420  0.65282591    -0.00100
Br520      Br  0.11703240  0.81111638  0.63728036    -0.04400
C521        C  0.22370598  0.75149514  0.50797435    -0.11800
C522        C  0.23473235  0.74454462  0.48022721     0.03600
C523        C  0.24892877  0.73050585  0.48554096    -0.12400
C524        C  0.25233706  0.72310473  0.51804603     0.18500
C525        C  0.24108845  0.72955001  0.54564716    -0.09400
C526        C  0.22682849  0.74353175  0.54049350    -0.02400
H527        H  0.25735762  0.72528579  0.46419894     0.05000
C528        C  0.26813383  0.70906288  0.52262987     0.20500
H529        H  0.21852650  0.74856839  0.56212393     0.10200
C530        C  0.29567316  0.72444405  0.53310434    -0.15700
C531        C  0.31169262  0.71210270  0.53659972     0.03200
C532        C  0.30011580  0.68369829  0.52891927    -0.11100
C533        C  0.27212919  0.66831986  0.51927201    -0.01100
C534        C  0.25620995  0.68074102  0.51616466    -0.06300
H535        H  0.30473645  0.74622222  0.53860775     0.06200
H536        H  0.26253949  0.64654528  0.51349495     0.09600
Br537      Br  0.24460303  0.71941660  0.59068356    -0.06000
Br538      Br  0.22996287  0.75197207  0.43433599    -0.02900
Br539      Br  0.34852644  0.73535665  0.55345839    -0.00100
Br540      Br  0.21819249  0.65823297  0.50329136    -0.04400
C541        C  0.82954127  0.62947282  0.95009488    -0.11800
C542        C  0.82440135  0.62330312  0.91546485     0.03600
C543        C  0.84593211  0.63675185  0.89221040    -0.12400
C544        C  0.87264403  0.65626967  0.90285049     0.18500
C545        C  0.87767009  0.66299740  0.93718328    -0.09400
C546        C  0.85613936  0.64977264  0.96047524    -0.02400
H547        H  0.84192045  0.63169137  0.86566460     0.05000
C548        C  0.89520198  0.66848768  0.87789445     0.20500
H549        H  0.86044678  0.65469517  0.98699518     0.10200
C550        C  0.90050443  0.69219081  0.86011028    -0.15700
C551        C  0.92090557  0.70342967  0.83506257     0.03200
C552        C  0.93644957  0.69073175  0.82751459    -0.11100
C553        C  0.93122433  0.66720306  0.84607774    -0.01100
C554        C  0.91080718  0.65605383  0.87089441    -0.06300
H555        H  0.88834406  0.70170976  0.86537239     0.06200
H556        H  0.94286044  0.65710204  0.84105639     0.09600
Br557      Br  0.91382641  0.68938380  0.95331808    -0.06000
Br558      Br  0.78831859  0.59758094  0.89829172    -0.02900
Br559      Br  0.92493929  0.73493605  0.81115283    -0.00100
Br560      Br  0.90437550  0.62334609  0.89404736    -0.04400
C561        C  0.78262957  0.62830230  0.05531547    -0.11800
C562        C  0.77243951  0.61628333  0.08735198     0.03600
C563        C  0.76647603  0.63060818  0.11149213    -0.12400
C564        C  0.77099169  0.65703223  0.10473873     0.18500
C565        C  0.78252145  0.66964462  0.07371166    -0.09400
C566        C  0.78816285  0.65530468  0.04934655    -0.02400
H567        H  0.75807458  0.62100043  0.13571657     0.05000
C568        C  0.76219701  0.67052327  0.12960833     0.20500
H569        H  0.79616933  0.66512771  0.02514169     0.10200
C570        C  0.78191807  0.69226305  0.14941753    -0.15700
C571        C  0.77395297  0.70525531  0.17323863     0.03200
C572        C  0.74556162  0.69589435  0.17808535    -0.11100
C573        C  0.72605429  0.67442061  0.15754863    -0.01100
C574        C  0.73415827  0.66203934  0.13330097    -0.06300
H575        H  0.80360465  0.69914294  0.14628498     0.06200
H576        H  0.70427406  0.66732480  0.16006615     0.09600
Br577      Br  0.78958027  0.70589977  0.06298454    -0.06000
Br578      Br  0.76760983  0.58129138  0.10077474    -0.02900
Br579      Br  0.80297022  0.73494642  0.19851455    -0.00100
Br580      Br  0.70629588  0.63431611  0.10480688    -0.04400
C581        C  0.68792655  0.39410723  0.99325835    -0.11800
C582        C  0.67792781  0.40827930  0.97397442     0.03600
C583        C  0.69188035  0.43715981  0.97465094    -0.12400
C584        C  0.71608480  0.45228705  0.99353846     0.18500
C585        C  0.72649697  0.43828237  0.01200339    -0.09400
C586        C  0.71240567  0.40948192  0.01181434    -0.02400
H587        H  0.68409754  0.44793746  0.95988611     0.05000
C588        C  0.73020853  0.48267931  0.99373294     0.20500
H589        H  0.72050275  0.39906111  0.02670082     0.10200
C590        C  0.71871663  0.49558413  0.01207285    -0.15700
C591        C  0.73190953  0.52441181  0.01364786     0.03200
C592        C  0.75738603  0.54089882  0.99669621    -0.11100
C593        C  0.76829434  0.52760491  0.97757002    -0.01100
C594        C  0.75491573  0.49885017  0.97590642    -0.06300
H595        H  0.69937470  0.48311100  0.02530307     0.06200
H596        H  0.78758499  0.53956027  0.96408201     0.09600
Br597      Br  0.75963627  0.45756666  0.03827796    -0.06000
Br598      Br  0.64684058  0.38981757  0.94419419    -0.02900
Br599      Br  0.71287006  0.53922882  0.03789366    -0.00100
Br600      Br  0.77097851  0.48251498  0.94868888    -0.04400
C601        C  0.83458369  0.22124309  0.05517220    -0.11800
C602        C  0.83122834  0.22884082  0.08801169     0.03600
C603        C  0.85189486  0.23586958  0.11209468    -0.12400
C604        C  0.87585541  0.23537503  0.10413064     0.18500
C605        C  0.87881204  0.22688396  0.07197295    -0.09400
C606        C  0.85828124  0.21987434  0.04783776    -0.02400
H607        H  0.84939441  0.24197088  0.13708589     0.05000
C608        C  0.89788924  0.24435816  0.12943033     0.20500
H609        H  0.86125665  0.21400004  0.02293782     0.10200
C610        C  0.89610729  0.22558235  0.15383882    -0.15700
C611        C  0.91698556  0.23337953  0.17781475     0.03200
C612        C  0.94008315  0.26056155  0.17763152    -0.11100
C613        C  0.94149635  0.27938969  0.15332503    -0.01100
C614        C  0.92070755  0.27143915  0.12924623    -0.06300
H615        H  0.87840115  0.20475834  0.15417168     0.06200
H616        H  0.95906980  0.30029353  0.15271132     0.09600
Br617      Br  0.91078172  0.22499406  0.05986759    -0.06000
Br618      Br  0.79864886  0.22889085  0.10232279    -0.02900
Br619      Br  0.91185100  0.20635764  0.21101740    -0.00100
Br620      Br  0.92423619  0.29809599  0.09643921    -0.04400
C621        C  0.75472635  0.07001303  0.82600478    -0.11800
C622        C  0.78005238  0.09509446  0.82297074     0.03600
C623        C  0.78862224  0.11479933  0.84865210    -0.12400
C624        C  0.77229377  0.10978982  0.87750861     0.18500
C625        C  0.74702399  0.08461764  0.88048294    -0.09400
C626        C  0.73847385  0.06501430  0.85482246    -0.02400
H627        H  0.80773286  0.13433985  0.84578104     0.05000
C628        C  0.78036730  0.13207913  0.90245426     0.20500
H629        H  0.71889328  0.04584460  0.85723324     0.10200
C630        C  0.78019113  0.15591555  0.89273583    -0.15700
C631        C  0.78523623  0.17653682  0.91607774     0.03200
C632        C  0.79026151  0.17326775  0.95013040    -0.11100
C633        C  0.79174397  0.14993571  0.95937441    -0.01100
C634        C  0.78709852  0.12956232  0.93586530    -0.06300
H635        H  0.77572160  0.15832386  0.86677985     0.06200
H636        H  0.79616206  0.14726146  0.98523868     0.09600
Br637      Br  0.72249367  0.07669506  0.91792207    -0.06000
Br638      Br  0.80232532  0.10435541  0.78305438    -0.02900
Br639      Br  0.78656436  0.20915071  0.89920564    -0.00100
Br640      Br  0.79058460  0.09896814  0.95044337    -0.04400
C641        C  0.69243483  0.30993495  0.00540099    -0.11800
C642        C  0.68393446  0.28574899  0.02460941     0.03600
C643        C  0.69994795  0.27324978  0.02450395    -0.12400
C644        C  0.72444515  0.28453691  0.00575110     0.18500
C645        C  0.73324215  0.30890731  0.98723798    -0.09400
C646        C  0.71737840  0.32147663  0.98735709    -0.02400
H647        H  0.69321918  0.25454798  0.03899067     0.05000
C648        C  0.73971684  0.26974674  0.00424445     0.20500
H649        H  0.72419418  0.33993823  0.97234774     0.10200
C650        C  0.72923833  0.24598654  0.98438607    -0.15700
C651        C  0.74296433  0.23121054  0.98200722     0.03200
C652        C  0.76777154  0.24016596  0.00023528    -0.11100
C653        C  0.77817320  0.26427188  0.01996224    -0.01100
C654        C  0.76443460  0.27899896  0.02203318    -0.06300
H655        H  0.71017030  0.23888919  0.97061711     0.06200
H656        H  0.79717754  0.27184422  0.03402146     0.09600
Br657      Br  0.76601031  0.32495382  0.96004663    -0.06000
Br658      Br  0.65158328  0.26946860  0.05265724    -0.02900
Br659      Br  0.72553517  0.19867950  0.95442514    -0.00100
Br660      Br  0.77993571  0.31134529  0.04988590    -0.04400
C661        C  0.95029334  0.26332100  0.32611411    -0.11800
C662        C  0.93052341  0.23559206  0.33435480     0.03600
C663        C  0.91288531  0.22989318  0.36193408    -0.12400
C664        C  0.91472254  0.25123814  0.38190013     0.18500
C665        C  0.93510358  0.27867778  0.37478155    -0.09400
C666        C  0.95247493  0.28453745  0.34700004    -0.02400
H667        H  0.89718253  0.20869407  0.36741264     0.05000
C668        C  0.89390141  0.24469366  0.40844006     0.20500
H669        H  0.96783935  0.30589075  0.34180067     0.10200
C670        C  0.89783150  0.23724109  0.44069017    -0.15700
C671        C  0.87829272  0.23100115  0.46623801     0.03200
C672        C  0.85425316  0.23233141  0.45954529    -0.11100
C673        C  0.85060565  0.23984139  0.42700396    -0.01100
C674        C  0.87001044  0.24577078  0.40159801    -0.06300
H675        H  0.91626838  0.23643924  0.44603138     0.06200
H676        H  0.83230235  0.24071131  0.42100982     0.09600
Br677      Br  0.93978350  0.30875976  0.40227354    -0.06000
Br678      Br  0.92523775  0.20447653  0.30849763    -0.02900
Br679      Br  0.88670029  0.22215403  0.50968517    -0.00100
Br680      Br  0.86283548  0.25475639  0.35759633    -0.04400
C681        C  0.80115191  0.18071296  0.56019580    -0.11800
C682        C  0.78894271  0.18065619  0.59141102     0.03600
C683        C  0.78175397  0.15919852  0.61445197    -0.12400
C684        C  0.78687926  0.13786289  0.60741444     0.18500
C685        C  0.79988337  0.13829890  0.57704923    -0.09400
C686        C  0.80695888  0.15959079  0.55379231    -0.02400
H687        H  0.77202124  0.15908318  0.63798354     0.05000
C688        C  0.77703740  0.11459684  0.63133653     0.20500
H689        H  0.81633582  0.15914178  0.53025637     0.10200
C690        C  0.74908786  0.09395375  0.63083951    -0.15700
C691        C  0.73854487  0.07203257  0.65376401     0.03200
C692        C  0.75603279  0.07092645  0.67845880    -0.11100
C693        C  0.78425892  0.09124666  0.67820552    -0.01100
C694        C  0.79482301  0.11292853  0.65481678    -0.06300
H695        H  0.73543832  0.09480933  0.61227852     0.06200
H696        H  0.79806526  0.09060500  0.69669611     0.09600
Br697      Br  0.80742763  0.10967213  0.56586174    -0.06000
Br698      Br  0.78257492  0.20961627  0.60529758    -0.02900
Br699      Br  0.70060728  0.04337021  0.64836260    -0.00100
Br700      Br  0.83348755  0.14002533  0.65606164    -0.04400
C701        C  0.77959473  0.24488066  0.50283705    -0.11800
C702        C  0.78423888  0.26683538  0.52404722     0.03600
C703        C  0.76750676  0.27846889  0.52134954    -0.12400
C704        C  0.74596951  0.26837538  0.49779299     0.18500
C705        C  0.74135501  0.24642950  0.47652397    -0.09400
C706        C  0.75821375  0.23490379  0.47908988    -0.02400
H707        H  0.77129125  0.29546291  0.53768598     0.05000
C708        C  0.72885552  0.28132895  0.49558824     0.20500
H709        H  0.75449645  0.21796161  0.46269836     0.10200
C710        C  0.73816845  0.30528249  0.47618961    -0.15700
C711        C  0.72297647  0.31866974  0.47440987     0.03200
C712        C  0.69823173  0.30843460  0.49306995    -0.11100
C713        C  0.68870555  0.28397222  0.51184302    -0.01100
C714        C  0.70370143  0.27040304  0.51307013    -0.06300
H715        H  0.75723313  0.31343015  0.46207602     0.06200
H716        H  0.66963876  0.27547553  0.52601364     0.09600
Br717      Br  0.71231677  0.23168298  0.44373963    -0.06000
Br718      Br  0.81363418  0.28194258  0.55637724    -0.02900
Br719      Br  0.73610912  0.34937218  0.44398985    -0.00100
Br720      Br  0.68916546  0.23705981  0.53899508    -0.04400
C721        C  0.05974456  0.31274891  0.16740929    -0.11800
C722        C  0.05448888  0.29789948  0.13709291     0.03600
C723        C  0.07373893  0.30878505  0.11081203    -0.12400
C724        C  0.09822177  0.33438407  0.11425863     0.18500
C725        C  0.10361155  0.34904037  0.14469006    -0.09400
C726        C  0.08438325  0.33822281  0.17089327    -0.02400
H727        H  0.06922023  0.29768540  0.08722280     0.05000
C728        C  0.11678894  0.34654728  0.08499663     0.20500
H729        H  0.08864702  0.34979721  0.19409206     0.10200
C730        C  0.11819758  0.36935641  0.06886697    -0.15700
C731        C  0.13569610  0.38186771  0.04134997     0.03200
C732        C  0.15232689  0.37150252  0.02948115    -0.11100
C733        C  0.15021762  0.34807512  0.04512937     0.02900
C734        C  0.13268350  0.33564546  0.07273951    -0.06300
H735        H  0.10554265  0.37744229  0.07777150     0.06200
H736        H  0.16285130  0.33987545  0.03653755     0.09600
Br737      Br  0.13695906  0.38384410  0.15163092    -0.06000
Br738      Br  0.02030592  0.26417259  0.12903947    -0.02900
Br739      Br  0.13464559  0.41207189  0.02036159    -0.00100
Br740      Br  0.13206371  0.30469990  0.09389763    -0.04400
C741        C  0.20631888  0.36819195  0.93402029    -0.11800
C742        C  0.23245356  0.37069785  0.93522310     0.03600
C743        C  0.23976275  0.35775726  0.91083485    -0.12400
C744        C  0.22171613  0.34313092  0.88432082     0.18500
C745        C  0.19560412  0.34083394  0.88297131    -0.09400
C746        C  0.18794449  0.35305380  0.90805738    -0.02400
H747        H  0.25974259  0.35941200  0.91227145     0.05000
C748        C  0.23041669  0.32996088  0.85891241     0.20500
H749        H  0.16811055  0.35171633  0.90654314     0.10200
C750        C  0.21594522  0.30111909  0.85647180    -0.15700
C751        C  0.22447827  0.28767129  0.83430730     0.03200
C752        C  0.24827539  0.30330133  0.81409652    -0.11100
C753        C  0.26258027  0.33229915  0.81652068    -0.01100
C754        C  0.25381786  0.34563277  0.83854011    -0.06300
H755        H  0.19813732  0.28894497  0.87244552     0.06200
H756        H  0.28062371  0.34478024  0.80104010     0.09600
Br757      Br  0.17063045  0.32306589  0.84617705    -0.06000
Br758      Br  0.25885878  0.39171827  0.96958416    -0.02900
Br759      Br  0.20323112  0.24799721  0.83476544    -0.00100
Br760      Br  0.27406280  0.38530092  0.83923977    -0.04400
C761        C  0.22221593  0.45741178  0.97402528    -0.11800
C762        C  0.23991415  0.47243105  0.94671433     0.03600
C763        C  0.25481777  0.50130446  0.94740202    -0.12400
C764        C  0.25223932  0.51576195  0.97434185     0.18500
C765        C  0.23398295  0.50117066  0.00076686    -0.09400
C766        C  0.21932010  0.47233175  0.00058227    -0.02400
H767        H  0.26852354  0.51263614  0.92669910     0.05000
C768        C  0.26883699  0.54614402  0.97444738     0.20500
H769        H  0.20581683  0.46164255  0.02164842     0.10200
C770        C  0.25723447  0.56121034  0.96213343    -0.15700
C771        C  0.27226774  0.59008613  0.96222785     0.03200
C772        C  0.29939633  0.60443328  0.97566035    -0.11100
C773        C  0.31115743  0.58902224  0.98698660    -0.01100
C774        C  0.29615739  0.56014437  0.98628309    -0.06300
H775        H  0.23643147  0.55039938  0.95212382     0.06200
H776        H  0.33193859  0.59940382  0.99703825     0.09600
Br777      Br  0.22872183  0.51984137  0.03780910    -0.06000
Br778      Br  0.24453266  0.45586409  0.90681464    -0.02900
Br779      Br  0.25485503  0.60800559  0.94129866    -0.00100
Br780      Br  0.31352793  0.54050543  0.00210563    -0.04400
C781        C  0.36639927  0.19734618  0.94912570    -0.11800
C782        C  0.37881583  0.21086757  0.91836287     0.03600
C783        C  0.36377894  0.21668848  0.89530816    -0.12400
C784        C  0.33637691  0.20904201  0.90172818     0.18500
C785        C  0.32333182  0.19416022  0.93106901    -0.09400
C786        C  0.33832232  0.18847031  0.95449944    -0.02400
H787        H  0.37364134  0.22761309  0.87227083     0.05000
C788        C  0.32243846  0.21797175  0.87787772     0.20500
H789        H  0.32809744  0.17779773  0.97743489     0.10200
C790        C  0.30388309  0.19919997  0.85429256    -0.15700
C791        C  0.29291484  0.20800329  0.82885484     0.03200
C792        C  0.30056868  0.23610993  0.82693767    -0.11100
C793        C  0.31862770  0.25462596  0.85125331    -0.01100
C794        C  0.32952913  0.24577640  0.87654829    -0.06300
H795        H  0.29873391  0.17786251  0.85495714     0.06200
H796        H  0.32462447  0.27620636  0.85031483     0.09600
Br797      Br  0.28552426  0.18236611  0.94074827    -0.06000
Br798      Br  0.41567408  0.22146562  0.90473685    -0.02900
Br799      Br  0.26993328  0.18119917  0.79581607    -0.00100
Br800      Br  0.35451118  0.27246986  0.90841638    -0.04400
C801        C  0.31132738  0.04808235  0.18098390    -0.11800
C802        C  0.31495333  0.04174507  0.14784144     0.03600
C803        C  0.32504454  0.06228283  0.12319885    -0.12400
C804        C  0.33176168  0.08925374  0.13116373     0.18500
C805        C  0.32693409  0.09531098  0.16398542    -0.09400
C806        C  0.31667291  0.07465848  0.18867527    -0.02400
H807        H  0.32818346  0.05736551  0.09784332     0.05000
C808        C  0.34496559  0.11085721  0.10515544     0.20500
H809        H  0.31370440  0.07955403  0.21410320     0.10200
C810        C  0.33055787  0.12272282  0.09127122    -0.15700
C811        C  0.34242248  0.14272340  0.06588538     0.03200
C812        C  0.36916819  0.15089821  0.05379011    -0.11100
C813        C  0.38349794  0.13898485  0.06808159    -0.01100
C814        C  0.37166971  0.11917759  0.09345498    -0.06300
H815        H  0.31001425  0.11643480  0.10033602     0.06200
H816        H  0.40402232  0.14494314  0.05934963     0.09600
Br817      Br  0.33540599  0.13168634  0.17664123    -0.06000
Br818      Br  0.30571557  0.00517791  0.13488586    -0.02900
Br819      Br  0.32158773  0.15901963  0.05072025    -0.00100
Br820      Br  0.39312298  0.10454540  0.11184063    -0.04400
C821        C  0.60187454  0.30333869  0.99590883    -0.11800
C822        C  0.58711494  0.27486538  0.98762263     0.03600
C823        C  0.55828905  0.26006890  0.98893986    -0.12400
C824        C  0.54357757  0.27304994  0.99752614     0.18500
C825        C  0.55799641  0.30142607  0.00488604    -0.09400
C826        C  0.58684472  0.31627599  0.00412054    -0.02400
H827        H  0.54718415  0.23825281  0.98291039     0.05000
C828        C  0.51318068  0.25645083  0.99880519     0.20500
H829        H  0.59750920  0.33804420  0.01029336     0.10200
C830        C  0.49979317  0.25096693  0.03005029    -0.15700
C831        C  0.47102409  0.23456090  0.03231092     0.03200
C832        C  0.45518940  0.22371198  0.00270144    -0.11100
C833        C  0.46880476  0.22905766  0.97155531    -0.01100
C834        C  0.49751004  0.24507489  0.96943192    -0.06300
H835        H  0.51183853  0.25936321  0.05279130     0.06200
H836        H  0.45713119  0.22033155  0.94874851     0.09600
Br837      Br  0.53919315  0.32091538  0.01524432    -0.06000
Br838      Br  0.60417585  0.25475281  0.97224179    -0.02900
Br839      Br  0.45490867  0.22863834  0.07638148    -0.00100
Br840      Br  0.51426833  0.25094198  0.92578827    -0.04400
C841        C  0.16235511  0.36655967  0.44983445    -0.11800
C842        C  0.16265908  0.34661272  0.42845737     0.03600
C843        C  0.14377714  0.33537627  0.40186267    -0.12400
C844        C  0.12443272  0.34352992  0.39621248     0.18500
C845        C  0.12351411  0.36269436  0.41798424    -0.09400
C846        C  0.14252322  0.37422706  0.44427884    -0.02400
H847        H  0.14446244  0.32053187  0.38515223     0.05000
C848        C  0.10539489  0.33214606  0.36736753     0.20500
H849        H  0.14166583  0.38917246  0.46062309     0.10200
C850        C  0.08116575  0.30636557  0.37054350    -0.15700
C851        C  0.06134102  0.29626133  0.34495957     0.03200
C852        C  0.06573705  0.31216833  0.31563375    -0.11100
C853        C  0.09031851  0.33769302  0.31220509    -0.01100
C854        C  0.11023672  0.34760383  0.33765300    -0.06300
H855        H  0.07725371  0.29449036  0.39353596     0.06200
H856        H  0.09396938  0.35003307  0.28968695     0.09600
Br857      Br  0.09634422  0.37336722  0.41287298    -0.06000
Br858      Br  0.18926716  0.33507451  0.43252195    -0.02900
Br859      Br  0.02758506  0.26196646  0.35282461    -0.00100
Br860      Br  0.14360800  0.38244106  0.33109467    -0.04400
C861        C  0.22088113  0.36412317  0.54085104    -0.11800
C862        C  0.24719714  0.37763184  0.55628737     0.03600
C863        C  0.25404532  0.36344747  0.57945615    -0.12400
C864        C  0.23591808  0.33537750  0.58624031     0.18500
C865        C  0.21065517  0.32124574  0.56867970    -0.09400
C866        C  0.20320991  0.33568970  0.54653601    -0.02400
H867        H  0.27363525  0.37453984  0.59251818     0.05000
C868        C  0.24285237  0.32195332  0.61350938     0.20500
H869        H  0.18324104  0.32471064  0.53431539     0.10200
C870        C  0.22480776  0.31077583  0.64108555    -0.15700
C871        C  0.23112995  0.29937568  0.66842143     0.03200
C872        C  0.25608186  0.29930771  0.66867261    -0.11100
C873        C  0.27437776  0.31081378  0.64142702    -0.01100
C874        C  0.26793990  0.32199169  0.61388643    -0.06300
H875        H  0.20598808  0.31151103  0.64170471     0.06200
H876        H  0.29361021  0.31086490  0.64143389     0.09600
Br877      Br  0.18580067  0.28220306  0.57365584    -0.06000
Br878      Br  0.27560382  0.41476909  0.54550658    -0.02900
Br879      Br  0.20609518  0.28636978  0.70594873    -0.00100
Br880      Br  0.29392352  0.33645399  0.57735366    -0.04400
C881        C  0.30174660  0.59736471  0.52786730    -0.11800
C882        C  0.31110037  0.58212325  0.50960157     0.03600
C883        C  0.29476860  0.55331769  0.50812134    -0.12400
C884        C  0.26889473  0.53918790  0.52389865     0.18500
C885        C  0.25945387  0.55417410  0.54203834    -0.09400
C886        C  0.27585175  0.58294946  0.54399272    -0.02400
H887        H  0.30201015  0.54183883  0.49387638     0.05000
C888        C  0.25203798  0.50882671  0.52067825     0.20500
H889        H  0.26808816  0.59413331  0.55787010     0.10200
C890        C  0.24872397  0.49223397  0.54862978    -0.15700
C891        C  0.23459069  0.46342913  0.54586783     0.03200
C892        C  0.22359532  0.45072498  0.51439010    -0.11100
C893        C  0.22606128  0.46751751  0.48680638    -0.01100
C894        C  0.24021192  0.49628169  0.48971374    -0.06300
H895        H  0.25751208  0.50179535  0.57263081     0.06200
H896        H  0.21774814  0.45834708  0.46249477     0.09600
Br897      Br  0.22371634  0.53633244  0.56297465    -0.06000
Br898      Br  0.34449900  0.59897327  0.48344085    -0.02900
Br899      Br  0.23044296  0.44304625  0.58645636    -0.00100
Br900      Br  0.24301550  0.51765772  0.45066786    -0.04400
loop_ 
_geom_bond_atom_site_label_1 
_geom_bond_atom_site_label_2 
_geom_bond_distance 
_geom_bond_site_symmetry_2 
_ccdc_geom_bond_type 
C1            N2   1.359       .  A
C1            N6   1.355       .  A
C1          C861   1.482       .  S
N2            C3   1.359       .  A
C3            N4   1.361       .  A
C3          C841   1.482       .  S
N4            C5   1.359       .  A
C5            N6   1.354       .  A
C5          C892   1.484       .  S
C7            N8   1.356       .  A
C7           N12   1.362   1_556  A
C7          C781   1.488       .  S
N8            C9   1.356   1_556  A
C9           N10   1.353       .  A
C9          C832   1.477       .  S
N10          C11   1.358       .  A
C11          N12   1.360       .  A
C11         C812   1.480       .  S
C13          N14   1.354       .  A
C13          N18   1.358       .  A
C13         C741   1.464       .  S
N14          C15   1.353       .  A
C15          N16   1.358       .  A
C15         C761   1.489       .  S
N16          C17   1.359   1_556  A
C17          N18   1.360   1_554  A
C17         C732   1.480       .  S
C19          N20   1.361       .  A
C19          N24   1.359       .  A
C19         C672   1.488       .  S
N20          C21   1.357       .  A
C21          N22   1.356       .  A
C21         C701   1.471       .  S
N22          C23   1.358       .  A
C23          N24   1.361       .  A
C23         C681   1.487       .  S
C25          N26   1.356       .  A
C25          N30   1.355       .  A
C25         C601   1.479       .  S
N26          C27   1.357   1_554  A
C27          N28   1.360       .  A
C27         C632   1.481       .  S
N28          C29   1.359   1_556  A
C29          N30   1.358       .  A
C29         C652   1.489       .  S
C31          N32   1.356   1_554  A
C31          N36   1.356       .  A
C31         C641   1.477       .  S
N32          C33   1.356       .  A
C33          N34   1.357       .  A
C33         C581   1.479       .  S
N34          C35   1.359       .  A
C35          N36   1.357   1_556  A
C35         C821   1.485       .  S
C37          N38   1.361       .  A
C37          N42   1.360       .  A
C37         C561   1.487       .  S
N38          C39   1.358   1_554  A
C39          N40   1.356       .  A
C39         C541   1.477       .  S
N40          C41   1.358       .  A
C41          N42   1.358   1_556  A
C41         C592   1.487       .  S
O43         Cu51   2.004   1_655  S
O43          C53   1.278       .  A
O44         Cu51   1.997       .  S
O44          C54   1.276       .  A
O45         Cu51   2.012   1_655  S
O45          C55   1.279       .  A
O46         Cu51   2.005       .  S
O46          C56   1.277       .  A
O47         Cu52   2.006       .  S
O47          C56   1.277       .  A
O48         Cu52   2.004   1_655  S
O48          C55   1.276       .  A
O49         Cu52   2.019       .  S
O49          C54   1.279       .  A
O50         Cu52   2.013   1_655  S
O50          C53   1.278       .  A
Cu51        Cu52   2.372       .  S
C53         C661   1.486       .  S
C54         C721   1.472       .  S
C55         C612   1.478       .  S
C56         C852   1.472       .  S
C57          N58   1.358       .  A
C57          N62   1.360       .  A
C57         C492   1.483       .  S
N58          C59   1.355       .  A
C59          N60   1.356       .  A
C59         C521   1.481       .  S
N60          C61   1.359       .  A
C61          N62   1.359       .  A
C61         C501   1.490       .  S
C63          N64   1.358       .  A
C63          N68   1.356       .  A
C63         C532   1.488       .  S
N64          C65   1.358       .  A
C65          N66   1.360       .  A
C65         C881   1.485       .  S
N66          C67   1.359       .  A
C67          N68   1.357       .  A
C67         C461   1.479       .  S
C69          N70   1.355       .  A
C69          N74   1.361       .  A
C69         C441   1.489       .  S
N70          C71   1.356       .  A
C71          N72   1.358       .  A
C71         C472   1.492       .  S
N72          C73   1.361       .  A
C73          N74   1.362       .  A
C73         C421   1.488       .  S
C75          N76   1.358       .  A
C75          N80   1.356       .  A
C75         C361   1.463       .  S
N76          C77   1.358       .  A
C77          N78   1.355       .  A
C77         C401   1.469       .  S
N78          C79   1.356       .  A
C79          N80   1.357       .  A
C79         C381   1.473       .  S
C81          N82   1.363       .  A
C81          N86   1.359       .  A
C81         C712   1.487       .  S
N82          C83   1.363       .  A
C83          N84   1.355       .  A
C83         C341   1.489       .  S
N84          C85   1.355       .  A
C85          N86   1.358       .  A
C85         C412   1.482       .  S
C87          N88   1.357       .  A
C87          N92   1.359       .  A
C87         C321   1.480       .  S
N88          C89   1.357       .  A
C89          N90   1.361       .  A
C89         C312   1.485       .  S
N90          C91   1.359       .  A
C91          N92   1.359       .  A
C91         C352   1.488       .  S
C93          N94   1.360       .  A
C93          N98   1.359       .  A
C93         C272   1.491       .  S
N94          C95   1.354       .  A
C95          N96   1.355   1_556  A
C95         C281   1.478       .  S
N96          C97   1.357       .  A
C97          N98   1.359   1_554  A
C97         C241   1.474       .  S
C99         N100   1.359       .  A
C99         N104   1.355       .  A
C99         C292   1.486       .  S
N100        C101   1.359       .  A
C101        N102   1.362       .  A
C101        C772   1.486       .  S
N102        C103   1.360       .  A
C103        N104   1.356       .  A
C103        C221   1.483       .  S
C105        N106   1.359       .  A
C105        N110   1.356       .  A
C105        C201   1.474       .  S
N106        C107   1.360   1_554  A
C107        N108   1.362       .  A
C107        C181   1.481       .  S
N108        C109   1.359       .  A
C109        N110   1.355   1_556  A
C109        C232   1.479       .  S
O111       Cu119   2.007   1_565  S
O111        C121   1.277       .  A
O112       Cu119   2.005       .  S
O112        C122   1.276       .  A
O113       Cu119   2.027   1_565  S
O113        C123   1.280       .  A
O114       Cu119   2.020       .  S
O114        C124   1.279       .  A
O115       Cu120   2.001       .  S
O115        C124   1.277       .  A
O116       Cu120   2.002   1_565  S
O116        C123   1.277       .  A
O117       Cu120   2.006       .  S
O117        C122   1.278       .  A
O118       Cu120   2.011   1_565  S
O118        C121   1.279       .  A
Cu119      Cu120   2.371       .  S
C121        C432   1.483       .  S
C122        C621   1.470       .  S
C123        C192   1.484       .  S
C124        C692   1.481       .  S
O125       Cu133   1.993       .  S
O125        C135   1.276       .  A
O126       Cu133   1.994       .  S
O126        C136   1.276       .  A
O127       Cu133   2.004       .  S
O127        C137   1.278       .  A
O128       Cu133   2.006       .  S
O128        C138   1.279       .  A
O129       Cu134   2.018       .  S
O129        C138   1.278       .  A
O130       Cu134   2.023       .  S
O130        C137   1.279       .  A
O131       Cu134   2.008       .  S
O131        C136   1.277       .  A
O132       Cu134   2.009       .  S
O132        C135   1.277       .  A
Cu133      Cu134   2.370       .  S
C135        C212   1.472       .  S
C136        C332   1.469       .  S
C137        C452   1.492       .  S
C138        C572   1.487       .  S
O139       Cu147   2.004       .  S
O139        C149   1.278       .  A
O140       Cu147   2.006   1_545  S
O140        C150   1.276       .  A
O141       Cu147   2.011       .  S
O141        C151   1.278       .  A
O142       Cu147   2.007   1_545  S
O142        C152   1.278       .  A
O143       Cu148   1.999   1_545  S
O143        C152   1.276       .  A
O144       Cu148   1.990       .  S
O144        C151   1.276       .  A
O145       Cu148   2.001   1_545  S
O145        C150   1.277       .  A
O146       Cu148   2.000       .  S
O146        C149   1.277       .  A
Cu147      Cu148   2.375       .  S
C149        C481   1.477       .  S
C150        C801   1.464       .  S
C151        C252   1.467       .  S
C152        C392   1.471       .  S
O153       Cu161   1.997       .  S
O153        C163   1.278       .  A
O154       Cu161   1.995   1_455  S
O154        C164   1.276       .  A
O155       Cu161   1.992       .  S
O155        C165   1.276       .  A
O156       Cu161   1.994   1_455  S
O156        C166   1.275       .  A
O157       Cu162   2.020   1_455  S
O157        C166   1.280       .  A
O158       Cu162   2.025       .  S
O158        C165   1.279       .  A
O159       Cu162   2.006   1_455  S
O159        C164   1.277       .  A
O160       Cu162   2.011       .  S
O160        C163   1.277       .  A
Cu161      Cu162   2.368       .  S
C163        C301   1.486       .  S
C164        C261   1.469       .  S
C165        C552   1.487       .  S
C166        C512   1.483       .  S
O167       Cu175   2.005       .  S
O167        C177   1.277       .  A
O168       Cu175   2.013       .  S
O168        C178   1.278       .  A
O169       Cu175   2.003       .  S
O169        C179   1.276       .  A
O170       Cu175   2.005       .  S
O170        C180   1.277       .  A
O171       Cu176   1.999       .  S
O171        C180   1.277       .  A
O172       Cu176   2.006       .  S
O172        C179   1.278       .  A
O173       Cu176   2.000       .  S
O173        C178   1.277       .  A
O174       Cu176   2.001       .  S
O174        C177   1.276       .  A
Cu175      Cu176   2.372       .  S
C177        C872   1.470       .  S
C178        C792   1.478       .  S
C179        C752   1.484       .  S
C180        C372   1.473       .  S
C181        C182   1.415       .  A
C181        C186   1.405       .  A
C182        C183   1.402       .  A
C182       Br198   1.920   1_556  S
C183        C184   1.402       .  A
C183        H187   1.084       .  S
C184        C188   1.479       .  S
C184        C185   1.406       .  A
C185        C186   1.397       .  A
C185       Br197   1.918       .  S
C186        H189   1.084       .  S
C188        C190   1.402       .  A
C188        C194   1.405       .  A
C190        C191   1.402       .  A
C190        H195   1.084       .  S
C191        C192   1.414       .  A
C191       Br199   1.917       .  S
C192        C193   1.407       .  A
C193        C194   1.399       .  A
C193        H196   1.084       .  S
C194       Br200   1.919       .  S
C201        C202   1.412       .  A
C201        C206   1.404       .  A
C202        C203   1.395       .  A
C202       Br218   1.921       .  S
C203        C204   1.401       .  A
C203        H207   1.083       .  S
C204        C208   1.475       .  S
C204        C205   1.407       .  A
C205        C206   1.399       .  A
C205       Br217   1.919       .  S
C206        H209   1.082       .  S
C208        C210   1.403       .  A
C208        C214   1.407       .  A
C210        C211   1.399       .  A
C210        H215   1.085       .  S
C211        C212   1.411       .  A
C211       Br219   1.920       .  S
C212        C213   1.403       .  A
C213        C214   1.394       .  A
C213        H216   1.085       .  S
C214       Br220   1.920       .  S
C221        C222   1.415       .  A
C221        C226   1.406       .  A
C222        C223   1.398       .  A
C222       Br238   1.921       .  S
C223        C224   1.401       .  A
C223        H227   1.084       .  S
C224        C228   1.483       .  S
C224        C225   1.410       .  A
C225        C226   1.402       .  A
C225       Br237   1.919   1_556  S
C226        H229   1.084   1_556  S
C228        C230   1.402   1_556  A
C228        C234   1.410       .  A
C230        C231   1.399       .  A
C230        H235   1.084       .  S
C231        C232   1.413   1_554  A
C231       Br239   1.921       .  S
C232        C233   1.404       .  A
C233        C234   1.400       .  A
C233        H236   1.084       .  S
C234       Br240   1.919       .  S
C241        C242   1.412       .  A
C241        C246   1.403       .  A
C242        C243   1.400       .  A
C242       Br258   1.918       .  S
C243        C244   1.402       .  A
C243        H247   1.083       .  S
C244        C248   1.474       .  S
C244        C245   1.406       .  A
C245        C246   1.394       .  A
C245       Br257   1.920       .  S
C246        H249   1.084       .  S
C248        C250   1.402       .  A
C248        C254   1.408       .  A
C250        C251   1.395       .  A
C250        H255   1.082       .  S
C251        C252   1.409       .  A
C251       Br259   1.921       .  S
C252        C253   1.403       .  A
C253        C254   1.399       .  A
C253        H256   1.082       .  S
C254       Br260   1.918       .  S
C261        C262   1.410       .  A
C261        C266   1.403       .  A
C262        C263   1.398       .  A
C262       Br278   1.920       .  S
C263        C264   1.401       .  A
C263        H267   1.082       .  S
C264        C268   1.471       .  S
C264        C265   1.407       .  A
C265        C266   1.395       .  A
C265       Br277   1.920       .  S
C266        H269   1.083       .  S
C268        C270   1.398       .  A
C268        C274   1.402       .  A
C270        C271   1.399       .  A
C270        H275   1.084       .  S
C271        C272   1.421       .  A
C271       Br279   1.921       .  S
C272        C273   1.411       .  A
C273        C274   1.393       .  A
C273        H276   1.083       .  S
C274       Br280   1.920       .  S
C281        C282   1.414       .  A
C281        C286   1.405   1_556  A
C282        C283   1.398       .  A
C282       Br298   1.921       .  S
C283        C284   1.403       .  A
C283        H287   1.084       .  S
C284        C288   1.480       .  S
C284        C285   1.408   1_556  A
C285        C286   1.396       .  A
C285       Br297   1.919       .  S
C286        H289   1.084       .  S
C288        C290   1.402   1_556  A
C288        C294   1.407       .  A
C290        C291   1.399       .  A
C290        H295   1.084       .  S
C291        C292   1.417   1_554  A
C291       Br299   1.922       .  S
C292        C293   1.406       .  A
C293        C294   1.396       .  A
C293        H296   1.081       .  S
C294       Br300   1.921       .  S
C301        C302   1.419       .  A
C301        C306   1.407       .  A
C302        C303   1.403       .  A
C302       Br318   1.922       .  S
C303        C304   1.402       .  A
C303        H307   1.083       .  S
C304        C308   1.477       .  S
C304        C305   1.404       .  A
C305        C306   1.393       .  A
C305       Br317   1.920       .  S
C306        H309   1.083       .  S
C308        C310   1.400       .  A
C308        C314   1.407       .  A
C310        C311   1.400       .  A
C310        H315   1.084       .  S
C311        C312   1.417       .  A
C311       Br319   1.921       .  S
C312        C313   1.406       .  A
C313        C314   1.397       .  A
C313        H316   1.083       .  S
C314       Br320   1.920       .  S
C321        C322   1.413       .  A
C321        C326   1.407       .  A
C322        C323   1.398       .  A
C322       Br338   1.919       .  S
C323        C324   1.400       .  A
C323        H327   1.083       .  S
C324        C328   1.475       .  S
C324        C325   1.406       .  A
C325        C326   1.399       .  A
C325       Br337   1.919       .  S
C326        H329   1.084       .  S
C328        C330   1.402       .  A
C328        C334   1.408       .  A
C330        C331   1.396       .  A
C330        H335   1.083       .  S
C331        C332   1.409       .  A
C331       Br339   1.921       .  S
C332        C333   1.403       .  A
C333        C334   1.399       .  A
C333        H336   1.083       .  S
C334       Br340   1.918       .  S
C341        C342   1.418       .  A
C341        C346   1.406       .  A
C342        C343   1.400       .  A
C342       Br358   1.922       .  S
C343        C344   1.402       .  A
C343        H347   1.084       .  S
C344        C348   1.486       .  S
C344        C345   1.409       .  A
C345        C346   1.401       .  A
C345       Br357   1.919       .  S
C346        H349   1.083       .  S
C348        C350   1.403       .  A
C348        C354   1.409       .  A
C350        C351   1.401       .  A
C350        H355   1.085       .  S
C351        C352   1.415       .  A
C351       Br359   1.920       .  S
C352        C353   1.407       .  A
C353        C354   1.400       .  A
C353        H356   1.083       .  S
C354       Br360   1.919       .  S
C361        C362   1.406       .  A
C361        C366   1.400       .  A
C362        C363   1.396       .  A
C362       Br378   1.918       .  S
C363        C364   1.402       .  A
C363        H367   1.085       .  S
C364        C368   1.473       .  S
C364        C365   1.409       .  A
C365        C366   1.398       .  A
C365       Br377   1.919       .  S
C366        H369   1.086       .  S
C368        C370   1.402       .  A
C368        C374   1.406       .  A
C370        C371   1.400       .  A
C370        H375   1.083       .  S
C371        C372   1.413       .  A
C371       Br379   1.921       .  S
C372        C373   1.403       .  A
C373        C374   1.394       .  A
C373        H376   1.083       .  S
C374       Br380   1.919       .  S
C381        C382   1.411       .  A
C381        C386   1.405       .  A
C382        C383   1.397       .  A
C382       Br398   1.921       .  S
C383        C384   1.402       .  A
C383        H387   1.083       .  S
C384        C388   1.476       .  S
C384        C385   1.407       .  A
C385        C386   1.397       .  A
C385       Br397   1.920       .  S
C386        H389   1.083       .  S
C388        C390   1.403       .  A
C388        C394   1.406       .  A
C390        C391   1.398       .  A
C390        H395   1.082       .  S
C391        C392   1.410       .  A
C391       Br399   1.920       .  S
C392        C393   1.404       .  A
C393        C394   1.396       .  A
C393        H396   1.082       .  S
C394       Br400   1.919       .  S
C401        C402   1.411       .  A
C401        C406   1.402       .  A
C402        C403   1.398       .  A
C402       Br418   1.921       .  S
C403        C404   1.402       .  A
C403        H407   1.084       .  S
C404        C408   1.473       .  S
C404        C405   1.407       .  A
C405        C406   1.396       .  A
C405       Br417   1.918       .  S
C406        H409   1.085       .  S
C408        C410   1.399       .  A
C408        C414   1.405       .  A
C410        C411   1.397       .  A
C410        H415   1.084       .  S
C411        C412   1.416       .  A
C411       Br419   1.922       .  S
C412        C413   1.408       .  A
C413        C414   1.398       .  A
C413        H416   1.083       .  S
C414       Br420   1.919       .  S
C421        C422   1.417       .  A
C421        C426   1.410       .  A
C422        C423   1.397       .  A
C422       Br438   1.920       .  S
C423        C424   1.398       .  A
C423        H427   1.086       .  S
C424        C428   1.476       .  S
C424        C425   1.405       .  A
C425        C426   1.401       .  A
C425       Br437   1.918       .  S
C426        H429   1.085       .  S
C428        C430   1.400       .  A
C428        C434   1.405       .  A
C430        C431   1.400       .  A
C430        H435   1.084       .  S
C431        C432   1.416       .  A
C431       Br439   1.919       .  S
C432        C433   1.406       .  A
C433        C434   1.398       .  A
C433        H436   1.084       .  S
C434       Br440   1.918       .  S
C441        C442   1.419       .  A
C441        C446   1.407       .  A
C442        C443   1.398       .  A
C442       Br458   1.924       .  S
C443        C444   1.400       .  A
C443        H447   1.085       .  S
C444        C448   1.485       .  S
C444        C445   1.409       .  A
C445        C446   1.401       .  A
C445       Br457   1.919       .  S
C446        H449   1.084       .  S
C448        C450   1.402       .  A
C448        C454   1.409       .  A
C450        C451   1.402       .  A
C450        H455   1.084       .  S
C451        C452   1.418       .  A
C451       Br459   1.920       .  S
C452        C453   1.409       .  A
C453        C454   1.399       .  A
C453        H456   1.083       .  S
C454       Br460   1.922       .  S
C461        C462   1.414       .  A
C461        C466   1.405       .  A
C462        C463   1.399       .  A
C462       Br478   1.921       .  S
C463        C464   1.400       .  A
C463        H467   1.084       .  S
C464        C468   1.477       .  S
C464        C465   1.407       .  A
C465        C466   1.400       .  A
C465       Br477   1.918       .  S
C466        H469   1.083       .  S
C468        C470   1.400       .  A
C468        C474   1.403       .  A
C470        C471   1.401       .  A
C470        H475   1.084       .  S
C471        C472   1.419       .  A
C471       Br479   1.920       .  S
C472        C473   1.411       .  A
C473        C474   1.397       .  A
C473        H476   1.083       .  S
C474       Br480   1.919       .  S
C481        C482   1.414       .  A
C481        C486   1.406       .  A
C482        C483   1.398       .  A
C482       Br498   1.921       .  S
C483        C484   1.400       .  A
C483        H487   1.083       .  S
C484        C488   1.472       .  S
C484        C485   1.404       .  A
C485        C486   1.397       .  A
C485       Br497   1.918       .  S
C486        H489   1.083       .  S
C488        C490   1.400       .  A
C488        C494   1.403       .  A
C490        C491   1.399       .  A
C490        H495   1.084       .  S
C491        C492   1.415       .  A
C491       Br499   1.920       .  S
C492        C493   1.408       .  A
C493        C494   1.396       .  A
C493        H496   1.083       .  S
C494       Br500   1.919       .  S
C501        C502   1.419       .  A
C501        C506   1.409       .  A
C502        C503   1.402       .  A
C502       Br518   1.920       .  S
C503        C504   1.401       .  A
C503        H507   1.084       .  S
C504        C508   1.477       .  S
C504        C505   1.404       .  A
C505        C506   1.395       .  A
C505       Br517   1.920       .  S
C506        H509   1.083       .  S
C508        C510   1.399       .  A
C508        C514   1.406       .  A
C510        C511   1.397       .  A
C510        H515   1.087       .  S
C511        C512   1.417       .  A
C511       Br519   1.923       .  S
C512        C513   1.407       .  A
C513        C514   1.400       .  A
C513        H516   1.086       .  S
C514       Br520   1.918       .  S
C521        C522   1.415       .  A
C521        C526   1.407       .  A
C522        C523   1.398       .  A
C522       Br538   1.919       .  S
C523        C524   1.400       .  A
C523        H527   1.083       .  S
C524        C528   1.473       .  S
C524        C525   1.404       .  A
C525        C526   1.398       .  A
C525       Br537   1.918       .  S
C526        H529   1.083       .  S
C528        C530   1.399       .  A
C528        C534   1.403       .  A
C530        C531   1.399       .  A
C530        H535   1.083       .  S
C531        C532   1.419       .  A
C531       Br539   1.922       .  S
C532        C533   1.410       .  A
C533        C534   1.396       .  A
C533        H536   1.083       .  S
C534       Br540   1.919       .  S
C541        C542   1.413       .  A
C541        C546   1.404       .  A
C542        C543   1.399       .  A
C542       Br558   1.921       .  S
C543        C544   1.401       .  A
C543        H547   1.086       .  S
C544        C548   1.475       .  S
C544        C545   1.406       .  A
C545        C546   1.399       .  A
C545       Br557   1.917       .  S
C546        H549   1.085       .  S
C548        C550   1.400       .  A
C548        C554   1.403       .  A
C550        C551   1.402       .  A
C550        H555   1.084       .  S
C551        C552   1.417       .  A
C551       Br559   1.920       .  S
C552        C553   1.409       .  A
C553        C554   1.396       .  A
C553        H556   1.084       .  S
C554       Br560   1.920       .  S
C561        C562   1.417       .  A
C561        C566   1.408       .  A
C562        C563   1.401       .  A
C562       Br578   1.922       .  S
C563        C564   1.401       .  A
C563        H567   1.086       .  S
C564        C568   1.478       .  S
C564        C565   1.404       .  A
C565        C566   1.398       .  A
C565       Br577   1.918       .  S
C566        H569   1.085       .  S
C568        C570   1.402       .  A
C568        C574   1.404       .  A
C570        C571   1.403       .  A
C570        H575   1.083       .  S
C571        C572   1.418       .  A
C571       Br579   1.920       .  S
C572        C573   1.407       .  A
C573        C574   1.396       .  A
C573        H576   1.083       .  S
C574       Br580   1.919       .  S
C581        C582   1.414       .  A
C581        C586   1.406   1_556  A
C582        C583   1.399       .  A
C582       Br598   1.921       .  S
C583        C584   1.401       .  A
C583        H587   1.084       .  S
C584        C588   1.474       .  S
C584        C585   1.406   1_556  A
C585        C586   1.395       .  A
C585       Br597   1.920       .  S
C586        H589   1.084       .  S
C588        C590   1.400   1_556  A
C588        C594   1.404       .  A
C590        C591   1.400       .  A
C590        H595   1.083       .  S
C591        C592   1.418   1_554  A
C591       Br599   1.921       .  S
C592        C593   1.409       .  A
C593        C594   1.396       .  A
C593        H596   1.083       .  S
C594       Br600   1.920       .  S
C601        C602   1.416       .  A
C601        C606   1.406       .  A
C602        C603   1.399       .  A
C602       Br618   1.922       .  S
C603        C604   1.400       .  A
C603        H607   1.083       .  S
C604        C608   1.472       .  S
C604        C605   1.404       .  A
C605        C606   1.395       .  A
C605       Br617   1.918       .  S
C606        H609   1.083       .  S
C608        C610   1.399       .  A
C608        C614   1.405       .  A
C610        C611   1.399       .  A
C610        H615   1.084       .  S
C611        C612   1.414       .  A
C611       Br619   1.920       .  S
C612        C613   1.405       .  A
C613        C614   1.397       .  A
C613        H616   1.084       .  S
C614       Br620   1.919       .  S
C621        C622   1.409       .  A
C621        C626   1.401       .  A
C622        C623   1.400       .  A
C622       Br638   1.920       .  S
C623        C624   1.405       .  A
C623        H627   1.082       .  S
C624        C628   1.478       .  S
C624        C625   1.410       .  A
C625        C626   1.396       .  A
C625       Br637   1.920       .  S
C626        H629   1.083       .  S
C628        C630   1.401       .  A
C628        C634   1.407       .  A
C630        C631   1.398       .  A
C630        H635   1.086       .  S
C631        C632   1.413       .  A
C631       Br639   1.920       .  S
C632        C633   1.407       .  A
C633        C634   1.398       .  A
C633        H636   1.086       .  S
C634       Br640   1.920       .  S
C641        C642   1.414       .  A
C641        C646   1.405   1_554  A
C642        C643   1.399       .  A
C642       Br658   1.921       .  S
C643        C644   1.402       .  A
C643        H647   1.084       .  S
C644        C648   1.473       .  S
C644        C645   1.405   1_554  A
C645        C646   1.395       .  A
C645       Br657   1.919       .  S
C646        H649   1.084       .  S
C648        C650   1.399   1_554  A
C648        C654   1.403       .  A
C650        C651   1.399       .  A
C650        H655   1.084       .  S
C651        C652   1.418   1_556  A
C651       Br659   1.921       .  S
C652        C653   1.411       .  A
C653        C654   1.396       .  A
C653        H656   1.083       .  S
C654       Br660   1.920       .  S
C661        C662   1.417       .  A
C661        C666   1.408       .  A
C662        C663   1.401       .  A
C662       Br678   1.920       .  S
C663        C664   1.400       .  A
C663        H667   1.084       .  S
C664        C668   1.476       .  S
C664        C665   1.404       .  A
C665        C666   1.397       .  A
C665       Br677   1.919       .  S
C666        H669   1.083       .  S
C668        C670   1.400       .  A
C668        C674   1.404       .  A
C670        C671   1.403       .  A
C670        H675   1.083       .  S
C671        C672   1.419       .  A
C671       Br679   1.921       .  S
C672        C673   1.407       .  A
C673        C674   1.396       .  A
C673        H676   1.083       .  S
C674       Br680   1.919       .  S
C681        C682   1.417       .  A
C681        C686   1.409       .  A
C682        C683   1.400       .  A
C682       Br698   1.922       .  S
C683        C684   1.400       .  A
C683        H687   1.082       .  S
C684        C688   1.477       .  S
C684        C685   1.405       .  A
C685        C686   1.400       .  A
C685       Br697   1.918       .  S
C686        H689   1.080       .  S
C688        C690   1.400       .  A
C688        C694   1.407       .  A
C690        C691   1.398       .  A
C690        H695   1.084       .  S
C691        C692   1.414       .  A
C691       Br699   1.922       .  S
C692        C693   1.406       .  A
C693        C694   1.401       .  A
C693        H696   1.084       .  S
C694       Br700   1.918       .  S
C701        C702   1.407       .  A
C701        C706   1.402       .  A
C702        C703   1.400       .  A
C702       Br718   1.918       .  S
C703        C704   1.403       .  A
C703        H707   1.084       .  S
C704        C708   1.479       .  S
C704        C705   1.408       .  A
C705        C706   1.401       .  A
C705       Br717   1.917       .  S
C706        H709   1.084       .  S
C708        C710   1.401       .  A
C708        C714   1.405       .  A
C710        C711   1.402       .  A
C710        H715   1.083       .  S
C711        C712   1.415       .  A
C711       Br719   1.920       .  S
C712        C713   1.409       .  A
C713        C714   1.400       .  A
C713        H716   1.083       .  S
C714       Br720   1.919       .  S
C721        C722   1.410       .  A
C721        C726   1.403       .  A
C722        C723   1.400       .  A
C722       Br738   1.919       .  S
C723        C724   1.403       .  A
C723        H727   1.083       .  S
C724        C728   1.476       .  S
C724        C725   1.408       .  A
C725        C726   1.397       .  A
C725       Br737   1.920       .  S
C726        H729   1.083       .  S
C728        C730   1.400       .  A
C728        C734   1.406       .  A
C730        C731   1.397       .  A
C730        H735   1.083       .  S
C731        C732   1.414       .  A
C731       Br739   1.922       .  S
C732        C733   1.407       .  A
C733        C734   1.400       .  A
C733        H736   1.083       .  S
C734       Br740   1.918       .  S
C741        C742   1.406       .  A
C741        C746   1.401       .  A
C742        C743   1.395       .  A
C742       Br758   1.919       .  S
C743        C744   1.403       .  A
C743        H747   1.082       .  S
C744        C748   1.477       .  S
C744        C745   1.410       .  A
C745        C746   1.399       .  A
C745       Br757   1.919       .  S
C746        H749   1.082       .  S
C748        C750   1.400       .  A
C748        C754   1.407       .  A
C750        C751   1.398       .  A
C750        H755   1.084       .  S
C751        C752   1.417       .  A
C751       Br759   1.922       .  S
C752        C753   1.408       .  A
C753        C754   1.397       .  A
C753        H756   1.083       .  S
C754       Br760   1.921       .  S
C761        C762   1.422       .  A
C761        C766   1.410   1_556  A
C762        C763   1.398       .  A
C762       Br778   1.924       .  S
C763        C764   1.397       .  A
C763        H767   1.084       .  S
C764        C768   1.472       .  S
C764        C765   1.403   1_556  A
C765        C766   1.396       .  A
C765       Br777   1.918       .  S
C766        H769   1.082       .  S
C768        C770   1.397       .  A
C768        C774   1.404       .  A
C770        C771   1.398       .  A
C770        H775   1.083       .  S
C771        C772   1.418       .  A
C771       Br779   1.919       .  S
C772        C773   1.408       .  A
C773        C774   1.398       .  A
C773        H776   1.083       .  S
C774       Br780   1.918   1_556  S
C781        C782   1.420       .  A
C781        C786   1.410       .  A
C782        C783   1.395       .  A
C782       Br798   1.921       .  S
C783        C784   1.397       .  A
C783        H787   1.083       .  S
C784        C788   1.473       .  S
C784        C785   1.403       .  A
C785        C786   1.399       .  A
C785       Br797   1.917       .  S
C786        H789   1.081       .  S
C788        C790   1.401       .  A
C788        C794   1.405       .  A
C790        C791   1.400       .  A
C790        H795   1.083       .  S
C791        C792   1.414       .  A
C791       Br799   1.920       .  S
C792        C793   1.405       .  A
C793        C794   1.395       .  A
C793        H796   1.083       .  S
C794       Br800   1.920       .  S
C801        C802   1.406       .  A
C801        C806   1.402       .  A
C802        C803   1.395       .  A
C802       Br818   1.920       .  S
C803        C804   1.402       .  A
C803        H807   1.083       .  S
C804        C808   1.474       .  S
C804        C805   1.409       .  A
C805        C806   1.400       .  A
C805       Br817   1.919       .  S
C806        H809   1.083       .  S
C808        C810   1.401       .  A
C808        C814   1.406       .  A
C810        C811   1.400       .  A
C810        H815   1.084       .  S
C811        C812   1.415       .  A
C811       Br819   1.919       .  S
C812        C813   1.406       .  A
C813        C814   1.394       .  A
C813        H816   1.083       .  S
C814       Br820   1.921       .  S
C821        C822   1.418       .  A
C821        C826   1.409   1_556  A
C822        C823   1.396       .  A
C822       Br838   1.922       .  S
C823        C824   1.399       .  A
C823        H827   1.083       .  S
C824        C828   1.474       .  S
C824        C825   1.405   1_556  A
C825        C826   1.397       .  A
C825       Br837   1.919       .  S
C826        H829   1.083       .  S
C828        C830   1.402   1_556  A
C828        C834   1.406       .  A
C830        C831   1.399       .  A
C830        H835   1.083       .  S
C831        C832   1.413       .  A
C831       Br839   1.920       .  S
C832        C833   1.404   1_554  A
C833        C834   1.394       .  A
C833        H836   1.080       .  S
C834       Br840   1.920       .  S
C841        C842   1.416       .  A
C841        C846   1.406       .  A
C842        C843   1.401       .  A
C842       Br858   1.921       .  S
C843        C844   1.400       .  A
C843        H847   1.084       .  S
C844        C848   1.474       .  S
C844        C845   1.405       .  A
C845        C846   1.397       .  A
C845       Br857   1.919       .  S
C846        H849   1.084       .  S
C848        C850   1.400       .  A
C848        C854   1.407       .  A
C850        C851   1.399       .  A
C850        H855   1.085       .  S
C851        C852   1.411       .  A
C851       Br859   1.920       .  S
C852        C853   1.403       .  A
C853        C854   1.398       .  A
C853        H856   1.085       .  S
C854       Br860   1.918       .  S
C861        C862   1.415       .  A
C861        C866   1.406       .  A
C862        C863   1.396       .  A
C862       Br878   1.922       .  S
C863        C864   1.401       .  A
C863        H867   1.083       .  S
C864        C868   1.483       .  S
C864        C865   1.410       .  A
C865        C866   1.400       .  A
C865       Br877   1.920       .  S
C866        H869   1.083       .  S
C868        C870   1.405       .  A
C868        C874   1.412       .  A
C870        C871   1.397       .  A
C870        H875   1.082       .  S
C871        C872   1.407       .  A
C871       Br879   1.920       .  S
C872        C873   1.403       .  A
C873        C874   1.399       .  A
C873        H876   1.082       .  S
C874       Br880   1.921       .  S
C881        C882   1.416       .  A
C881        C886   1.409       .  A
C882        C883   1.399       .  A
C882       Br898   1.921       .  S
C883        C884   1.401       .  A
C883        H887   1.084       .  S
C884        C888   1.478       .  S
C884        C885   1.405       .  A
C885        C886   1.399       .  A
C885       Br897   1.919       .  S
C886        H889   1.083       .  S
C888        C890   1.400       .  A
C888        C894   1.406       .  A
C890        C891   1.399       .  A
C890        H895   1.083       .  S
C891        C892   1.417       .  A
C891       Br899   1.922       .  S
C892        C893   1.406       .  A
C893        C894   1.398       .  A
C893        H896   1.083       .  S
C894       Br900   1.919       .  S
