geometry optimzed in LAMMPS
_audit_creation_date              2020-12-01 
_audit_creation_method            'lammps2cif' 
_symmetry_space_group_name_H-M    'P1' 
_symmetry_Int_Tables_number       1 
_symmetry_cell_setting            triclinic 
loop_ 
_symmetry_equiv_pos_as_xyz 
  x,y,z 
_cell_length_a                    38.18989294 
_cell_length_b                    38.22194838223284 
_cell_length_c                    42.0785273262299 
_cell_angle_alpha                 90.11882059889378 
_cell_angle_beta                  90.07557940836627 
_cell_angle_gamma                 120.05338604596591 
loop_ 
_atom_site_label 
_atom_site_type_symbol 
_atom_site_fract_x 
_atom_site_fract_y 
_atom_site_fract_z 
_atom_site_charge 
C1          C  0.12363471  0.18880907  0.36086441     0.85500
C2          C  0.09929285  0.15341587  0.33927538    -0.54800
C3          C  0.07291824  0.15773665  0.31984142     0.08400
C4          C  0.06874547  0.19521915  0.32809960     0.19300
C5          C  0.14011317  0.22707595  0.33836045    -0.55500
C6          C  0.11195343  0.23162056  0.32175003     0.08500
C7          C  0.09219191  0.19082990  0.38164287    -0.55000
C8          C  0.06223101  0.19226093  0.36520802     0.09100
H9          H  0.10835727  0.13087700  0.33562186     0.13600
H10         H  0.04437132  0.19654906  0.31470667    -0.00700
H11         H  0.17160027  0.24845610  0.33364543     0.13900
H12         H  0.09316257  0.19026914  0.40738595     0.13700
C13         C  0.04558180  0.18795520  0.10472365     0.85500
C14         C  0.03865991  0.16208861  0.13376147    -0.54800
C15         C  0.07369675  0.17107807  0.14850585     0.08400
C16         C  0.11262066  0.20251042  0.13239480     0.19300
C17         C  0.07331946  0.23280914  0.11724475    -0.55500
C18         C  0.10770428  0.23986443  0.13258261     0.08500
C19         C  0.07377700  0.18137663  0.08323534    -0.55000
C20         C  0.10806407  0.18731843  0.09763091     0.09100
H21         H  0.00903183  0.14137759  0.14331855     0.13600
H22         H  0.14095062  0.20777352  0.14415522    -0.00700
H23         H  0.06586145  0.25660110  0.11717395     0.13900
H24         H  0.06881063  0.17605283  0.05826329     0.13700
C25         C  0.12599524  0.41767417  0.09831725     0.85500
C26         C  0.10458123  0.42970792  0.12173479    -0.54800
C27         C  0.07748805  0.39876741  0.13984648     0.08400
C28         C  0.07202744  0.35688783  0.13136051     0.19300
C29         C  0.14239912  0.39358636  0.11817830    -0.55500
C30         C  0.11491924  0.36260005  0.13629011     0.08500
C31         C  0.09246261  0.38554847  0.07770934    -0.55000
C32         C  0.06382974  0.35377328  0.09464260     0.09100
H33         H  0.11484343  0.46135270  0.12685963     0.13600
H34         H  0.04793723  0.33148497  0.14512589    -0.00700
H35         H  0.17307833  0.39939071  0.11918025     0.13900
H36         H  0.09090021  0.38803488  0.05208247     0.13700
C37         C  0.27611567  0.33859715  0.09916330     0.85500
C38         C  0.31053847  0.36336640  0.12133705    -0.54800
C39         C  0.30527688  0.39012894  0.13900675     0.08400
C40         C  0.26878943  0.39472877  0.12877488     0.19300
C41         C  0.23592757  0.32316385  0.11968728    -0.55500
C42         C  0.23149777  0.35192727  0.13567484     0.08500
C43         C  0.27511985  0.36932854  0.07688982    -0.55000
C44         C  0.27392228  0.40029262  0.09173642     0.09100
H45         H  0.33234580  0.35392706  0.12726647     0.13600
H46         H  0.26757765  0.41984389  0.14105779    -0.00700
H47         H  0.21206864  0.29217295  0.12235383     0.13900
H48         H  0.27485503  0.36674650  0.05156210     0.13700
C49         C  0.14846980  0.31417104  0.20749709     0.85500
C50         C  0.12596281  0.26951647  0.18785054    -0.54800
C51         C  0.12908165  0.27492927  0.15537562     0.08400
C52         C  0.15107546  0.31877088  0.14338123     0.19300
C53         C  0.19305525  0.33821072  0.19085931    -0.55500
C54         C  0.19412108  0.33960746  0.15764168     0.08500
C55         C  0.12841329  0.33861059  0.19086331    -0.55000
C56         C  0.12864490  0.33913629  0.15783181     0.09100
H57         H  0.13484925  0.28689837  0.20610847     0.13600
H58         H  0.15169943  0.32008200  0.11698094    -0.00700
H59         H  0.21953694  0.34885864  0.20544981     0.13900
H60         H  0.11612693  0.35410163  0.20413762     0.13700
C61         C  0.27495196  0.41727383  0.36045002     0.85500
C62         C  0.30610844  0.41972836  0.33662341    -0.54800
C63         C  0.29669216  0.38264296  0.32478284     0.08400
C64         C  0.25879176  0.34677727  0.33808391     0.19300
C65         C  0.23340563  0.39291095  0.34166762    -0.55500
C66         C  0.22475740  0.35640546  0.32942950     0.08500
C67         C  0.27236884  0.38754114  0.38570184    -0.55000
C68         C  0.26749199  0.35231557  0.37412601     0.09100
H69         H  0.32911921  0.44803795  0.32633679     0.13600
H70         H  0.25329975  0.31712928  0.32891222    -0.00700
H71         H  0.21302295  0.40373620  0.33555032     0.13900
H72         H  0.27395746  0.39359408  0.41057145     0.13700
C73         C  0.04307205  0.33973064  0.35529261     0.85500
C74         C  0.03923082  0.36777335  0.33205655    -0.54800
C75         C  0.07534362  0.39447874  0.31873581     0.08400
C76         C  0.11205521  0.39155483  0.32953772     0.19300
C77         C  0.06501621  0.32092103  0.33525277    -0.55500
C78         C  0.10095180  0.34776282  0.32190352     0.08500
C79         C  0.07493209  0.36805430  0.37934810    -0.55000
C80         C  0.11042630  0.39552365  0.36570777     0.09100
H81         H  0.01037449  0.36386744  0.32413228     0.13600
H82         H  0.14108657  0.41467415  0.31876569    -0.00700
H83         H  0.05350683  0.28938851  0.32983021     0.13900
H84         H  0.06884883  0.36887237  0.40445768     0.13700
C85         C  0.15095404  0.31586650  0.25199246     0.85500
C86         C  0.19544473  0.33846148  0.27233027    -0.54800
C87         C  0.18999115  0.33443211  0.30509776     0.08400
C88         C  0.14544682  0.31183854  0.31602580     0.19300
C89         C  0.12684674  0.27076057  0.26782414    -0.55500
C90         C  0.12514533  0.26934094  0.30080030     0.08500
C91         C  0.12606619  0.33503123  0.26850747    -0.55000
C92         C  0.12486124  0.33399241  0.30135689     0.09100
H93         H  0.17857764  0.32946756  0.25343494     0.13600
H94         H  0.14303194  0.31040966  0.34237034    -0.00700
H95         H  0.11539754  0.24348408  0.25364161     0.13900
H96         H  0.11060777  0.34738001  0.25526684     0.13700
C97         C  0.41682065  0.12253898  0.35741180     0.85500
C98         C  0.43327367  0.11316441  0.32860622    -0.54800
C99         C  0.40472484  0.08733986  0.30825201     0.08400
C100        C  0.36025916  0.07096031  0.31956352     0.19300
C101        C  0.38664880  0.13603773  0.34429021    -0.55500
C102        C  0.35842711  0.11037024  0.32312080     0.08500
C103        C  0.38945974  0.08224796  0.37344724    -0.55000
C104        C  0.35873382  0.05489093  0.35467603     0.09100
H105        H  0.46559934  0.12760454  0.32396133     0.13600
H106        H  0.33688580  0.04866228  0.30318324    -0.00700
H107        H  0.38742175  0.16407797  0.34946764     0.13900
H108        H  0.39192253  0.07719503  0.39856481     0.13700
C109        C  0.18673398  0.11525564  0.10574511     0.85500
C110        C  0.15527611  0.08514077  0.12858605    -0.54800
C111        C  0.16541930  0.05830171  0.14116921     0.08400
C112        C  0.20458458  0.06175287  0.12657308     0.19300
C113        C  0.22800418  0.13276168  0.12472615    -0.55500
C114        C  0.23858595  0.10583794  0.13570685     0.08500
C115        C  0.18941974  0.08904099  0.07947744    -0.55000
C116        C  0.19681567  0.05983733  0.09002440     0.09100
H117        H  0.13213880  0.09037515  0.13874324     0.13600
H118        H  0.21097927  0.03788595  0.13476962    -0.00700
H119        H  0.24631509  0.16383373  0.13242320     0.13900
H120        H  0.18477078  0.09270769  0.05460536     0.13700
C121        C  0.41495500  0.27666195  0.10106158     0.85500
C122        C  0.41714811  0.31025443  0.12181582    -0.54800
C123        C  0.38062809  0.30056884  0.13517761     0.08400
C124        C  0.34477349  0.26017604  0.12337825     0.19300
C125        C  0.39375898  0.23833618  0.12282585    -0.55500
C126        C  0.35635300  0.22776937  0.13340111     0.08500
C127        C  0.38399195  0.27021876  0.07529463    -0.55000
C128        C  0.34853181  0.26473679  0.08683346     0.09100
H129        H  0.44582744  0.33413857  0.13113607     0.13600
H130        H  0.31502779  0.25423809  0.13259973    -0.00700
H131        H  0.40849657  0.22248301  0.13212335     0.13900
H132        H  0.38997048  0.27128134  0.05008817     0.13700
C133        C  0.32084079  0.15176650  0.20794494     0.85500
C134        C  0.33770342  0.19625371  0.18868624    -0.54800
C135        C  0.33523599  0.19177274  0.15603802     0.08400
C136        C  0.31989247  0.14823228  0.14376181     0.19300
C137        C  0.27797155  0.12172260  0.19025414    -0.55500
C138        C  0.27710294  0.12122924  0.15719973     0.08500
C139        C  0.34730172  0.13401581  0.19187490    -0.55000
C140        C  0.34718459  0.13330958  0.15885793     0.09100
H141        H  0.32984117  0.17877545  0.20688639     0.13600
H142        H  0.32001654  0.14698421  0.11736854    -0.00700
H143        H  0.25108031  0.10654437  0.20378004     0.13900
H144        H  0.36265109  0.12161875  0.20539152     0.13700
C145        C  0.18738925  0.05269118  0.35613936     0.85500
C146        C  0.15650990  0.05127619  0.33208322    -0.54800
C147        C  0.16611152  0.08882129  0.32066668     0.08400
C148        C  0.20486493  0.12392318  0.33551086     0.19300
C149        C  0.22926278  0.07726008  0.33876664    -0.55500
C150        C  0.23877738  0.11373971  0.32704468     0.08500
C151        C  0.18879057  0.08097849  0.38225435    -0.55000
C152        C  0.19595013  0.11744524  0.37154918     0.09100
H153        H  0.13393513  0.02316141  0.32110269     0.13600
H154        H  0.21164647  0.15441722  0.32759046    -0.00700
H155        H  0.24967551  0.06629092  0.33319554     0.13900
H156        H  0.18451620  0.07262540  0.40699564     0.13700
C157        C  0.34332522  0.27903109  0.35712860     0.85500
C158        C  0.37483746  0.31296727  0.33725677    -0.54800
C159        C  0.40198088  0.30426963  0.32330118     0.08400
C160        C  0.39892712  0.26463126  0.33516165     0.19300
C161        C  0.32724451  0.23986564  0.33566213    -0.55500
C162        C  0.35573971  0.23139105  0.32416405     0.08500
C163        C  0.36848787  0.27402727  0.38320197    -0.55000
C164        C  0.39887956  0.26879301  0.37201019     0.09100
H165        H  0.37039217  0.33770499  0.32977201     0.13600
H166        H  0.42364000  0.25987398  0.32632556    -0.00700
H167        H  0.29608281  0.22079795  0.32838864     0.13900
H168        H  0.36550020  0.27823378  0.40829161     0.13700
C169        C  0.31661237  0.14897229  0.25243288     0.85500
C170        C  0.27146308  0.13078185  0.27128640    -0.54800
C171        C  0.27508394  0.13429041  0.30409075     0.08400
C172        C  0.31854384  0.15133180  0.31658499     0.19300
C173        C  0.34442314  0.19300508  0.26946313    -0.55500
C174        C  0.34339614  0.19391859  0.30260120     0.08500
C175        C  0.33567365  0.12450635  0.26949019    -0.55000
C176        C  0.33573147  0.12534311  0.30235708     0.09100
H177        H  0.28911810  0.13858395  0.25295770     0.13600
H178        H  0.31930410  0.15186336  0.34299162    -0.00700
H179        H  0.35999913  0.22002280  0.25532524     0.13900
H180        H  0.34867484  0.10923879  0.25662105     0.13700
C181        C  0.34893416  0.04925708  0.10690980     0.85500
C182        C  0.37996938  0.04735499  0.12793961    -0.54800
C183        C  0.40867883  0.08423576  0.13968572     0.08400
C184        C  0.40438122  0.12008204  0.12811829     0.19300
C185        C  0.33253435  0.07173827  0.12790659    -0.55500
C186        C  0.36077229  0.10891865  0.13877820     0.08500
C187        C  0.37341612  0.07874730  0.08069360    -0.55000
C188        C  0.40334824  0.11461903  0.09121538     0.09100
H189        H  0.37736797  0.01879807  0.13496556     0.13600
H190        H  0.42857031  0.14999493  0.13680241    -0.00700
H191        H  0.30144064  0.05908155  0.13553216     0.13900
H192        H  0.37010970  0.07094951  0.05566440     0.13700
O193        O  0.28615137  0.38383802  0.19231949    -0.58800
C194        C  0.30587773  0.37865351  0.29292109     0.73800
O195        O  0.33309917  0.32465597  0.24696371    -0.60000
C196        C  0.31225693  0.38706497  0.17216588     0.73800
C197        C  0.36431584  0.44326897  0.23026486     0.76100
Cd198      Cd  0.31659512  0.36855859  0.23279949     1.29100
O199        O  0.27726769  0.36486402  0.27258901    -0.58800
O200        O  0.32656347  0.42887231  0.23456565    -0.57700
C201        C  0.30260185  0.29324291  0.23649981     0.76100
O202        O  0.38069519  0.42103752  0.23008243    -0.60000
O203        O  0.34136592  0.38771314  0.28484589    -0.58500
O204        O  0.34100020  0.38149366  0.18106127    -0.58500
O205        O  0.27491013  0.29625640  0.22218164    -0.57600
O206        O  0.39481549  0.28598094  0.18504535    -0.58800
C207        C  0.40590293  0.31163334  0.28954632     0.73800
O208        O  0.42740803  0.37344334  0.22828849    -0.60000
C209        C  0.38179428  0.30553935  0.16887561     0.73800
C210        C  0.30377273  0.25669751  0.23875096     0.76100
Cd211      Cd  0.38051259  0.30297485  0.23048291     1.37500
O212        O  0.41081461  0.28756302  0.27124819    -0.58800
O213        O  0.31257748  0.24609851  0.21314267    -0.57700
C214        C  0.45513228  0.36383859  0.22576588     0.76100
O215        O  0.32108928  0.25447103  0.26347687    -0.60000
O216        O  0.39572633  0.33622341  0.27792972    -0.58500
O217        O  0.36759656  0.32575658  0.18255141    -0.58500
O218        O  0.44575820  0.32670983  0.22277835    -0.57600
O219        O  0.07720705  0.39052625  0.19465290    -0.58800
C220        C  0.07639590  0.41122003  0.28873122     0.73800
O221        O  0.12957396  0.50223790  0.24019644    -0.60000
C222        C  0.07455950  0.41033419  0.17159380     0.73800
C223        C  0.99745141  0.39361102  0.22799989     0.76100
Cd224      Cd  0.07868832  0.43661821  0.23075984     1.37500
O225        O  0.08935603  0.39968329  0.26559542    -0.58800
O226        O  0.02051889  0.37884558  0.23024928    -0.57700
C227        C  0.15857318  0.49475291  0.23997730     0.76100
O228        O  0.01263846  0.43208008  0.22847494    -0.60000
O229        O  0.06390188  0.43611569  0.28468887    -0.58500
O230        O  0.07437840  0.44315050  0.17681872    -0.58500
O231        O  0.15085170  0.45950432  0.23241111    -0.57600
O232        O  0.06986482  0.16249551  0.26314637    -0.58800
C233        C  0.07535566  0.15771857  0.17957025     0.73800
O234        O  0.15398896  0.14349862  0.19640317    -0.60000
C235        C  0.07333361  0.14463038  0.28723014     0.73800
C236        C  0.05403904  0.05461295  0.22557432     0.76100
Cd237      Cd  0.09794511  0.12942884  0.22847212     1.37500
O238        O  0.05056988  0.12225423  0.18834991    -0.58800
O239        O  0.07326491  0.06547315  0.19973816    -0.57700
C240        C  0.18092728  0.16292972  0.21684238     0.76100
O241        O  0.07381929  0.06341307  0.25117308    -0.60000
O242        O  0.10400438  0.18097538  0.19775684    -0.58500
O243        O  0.08353138  0.11832641  0.28239790    -0.58500
O244        O  0.17011798  0.17230467  0.24237501    -0.57600
O245        O  0.18713328  0.12474848  0.27408283    -0.58800
C246        C  0.16106952  0.05248496  0.17539814     0.73800
O247        O  0.20526736  0.05207060  0.27468482    -0.60000
C248        C  0.16008687  0.09339201  0.28724391     0.73800
C249        C  0.21958120  0.16492690  0.21341511     0.76100
Cd250      Cd  0.19411606  0.08900981  0.23206811     1.37500
O251        O  0.18641725  0.04596172  0.18917649    -0.58800
O252        O  0.23754626  0.16478575  0.23845375    -0.57700
C253        C  0.20332755  0.02978583  0.25205205     0.76100
O254        O  0.22089604  0.14420936  0.19087309    -0.60000
O255        O  0.14129744  0.06443711  0.19216775    -0.58500
O256        O  0.13755975  0.06354595  0.26971779    -0.58500
O257        O  0.22863007  0.04691834  0.23002643    -0.57600
O258        O  0.44635670  0.11240939  0.18770792    -0.58800
C259        C  0.41832233  0.08126622  0.27750772     0.73800
O260        O  0.43479665  0.00195287  0.24614376    -0.60000
C261        C  0.43311814  0.08507377  0.16642101     0.73800
C262        C  0.51735214  0.05497543  0.22420182     0.76100
Cd263      Cd  0.44978414  0.06387738  0.22446535     1.37500
O264        O  0.45526942  0.10303100  0.26914171    -0.58800
O265        O  0.51163005  0.07454402  0.24602597    -0.57700
C266        C  0.38716604  0.48467402  0.22600879     0.76100
O267        O  0.49228103  0.04109045  0.20158895    -0.60000
O268        O  0.39442025  0.05390129  0.25880615    -0.58500
O269        O  0.43662442  0.05444880  0.17099011    -0.58500
O270        O  0.38827481  0.00830807  0.22050670    -0.57600
C271        C  0.21813534  0.21553799  0.41147906     0.85500
C272        C  0.19023074  0.21720674  0.38616525    -0.54800
C273        C  0.15536709  0.18411047  0.38015953     0.08400
C274        C  0.15204247  0.14757383  0.39896535     0.19300
C275        C  0.19081955  0.19799749  0.44070064    -0.55500
C276        C  0.15698225  0.16067740  0.43462728     0.08500
C277        C  0.22542374  0.18089970  0.40111598    -0.55000
C278        C  0.19181022  0.14687604  0.39191562     0.09100
H279        H  0.19803470  0.24440684  0.37381463     0.13600
H280        H  0.12400910  0.11857696  0.39370919    -0.00700
H281        H  0.19963800  0.21173352  0.46391322     0.13900
H282        H  0.25536771  0.18454905  0.39810777     0.13700
C283        C  0.20654696  0.47936417  0.40435059     0.85500
C284        C  0.21293496  0.00922671  0.37379748    -0.54800
C285        C  0.17981556  0.01202456  0.36933478     0.08400
C286        C  0.13693512  0.47100236  0.38579768     0.19300
C287        C  0.18403748  0.48766827  0.43083999    -0.55500
C288        C  0.14590373  0.47970584  0.42157333     0.08500
C289        C  0.17466580  0.43573192  0.39391280    -0.55000
C290        C  0.13998255  0.43224754  0.38235065     0.09100
H291        H  0.22777155  0.01008595  0.35171056     0.13600
H292        H  0.10731871  0.46690102  0.37796007    -0.00700
H293        H  0.19564308  0.49624393  0.45467946     0.13900
H294        H  0.18006892  0.41037328  0.39369910     0.13700
C295        C  0.20570642  0.20622631  0.05660834     0.85500
C296        C  0.20964792  0.18233183  0.08411657    -0.54800
C297        C  0.17739656  0.14732211  0.09234818     0.08400
C298        C  0.13890037  0.14195143  0.07499673     0.19300
C299        C  0.18487359  0.17567734  0.03009832    -0.55500
C300        C  0.14824553  0.14372263  0.03910939     0.08500
C301        C  0.17218241  0.21501844  0.06826155    -0.55000
C302        C  0.13901396  0.18233403  0.08029233     0.09100
H303        H  0.23752683  0.19353482  0.09662755     0.13600
H304        H  0.11039529  0.11476083  0.08246808    -0.00700
H305        H  0.19684100  0.17948143  0.00639992     0.13900
H306        H  0.17556651  0.24499833  0.06900266     0.13700
C307        C  0.21902778  0.48600687  0.04956533     0.85500
C308        C  0.19349739  0.46021465  0.07705784    -0.54800
C309        C  0.15686415  0.45466350  0.08021094     0.08400
C310        C  0.15135557  0.48531051  0.06014725     0.19300
C311        C  0.19057688  0.47186526  0.02041322    -0.55500
C312        C  0.15578293  0.47383193  0.02539451     0.08500
C313        C  0.22874544  0.02846921  0.05933191    -0.55000
C314        C  0.19425094  0.02740001  0.06845108     0.09100
H315        H  0.20616882  0.45025316  0.09517167     0.13600
H316        H  0.12236620  0.48456301  0.06480404    -0.00700
H317        H  0.19945282  0.46576889  0.99761170     0.13900
H318        H  0.25810680  0.05564151  0.06211038     0.13700
C319        C  0.48605506  0.25354208  0.05423382     0.85500
C320        C  0.45580494  0.25060735  0.07911903    -0.54800
C321        C  0.45484785  0.28386049  0.08703174     0.08400
C322        C  0.48880836  0.32132674  0.07014832     0.19300
C323        C  0.47871762  0.27417709  0.02604727    -0.55500
C324        C  0.48250415  0.31093086  0.03423527     0.08500
C325        C  0.02769561  0.28726322  0.06769887    -0.55000
C326        C  0.02787666  0.32090317  0.07839800     0.09100
H327        H  0.43503424  0.22244917  0.08968989     0.13600
H328        H  0.48994024  0.35006418  0.07661676    -0.00700
H329        H  0.47133288  0.26128413  0.00242435     0.13900
H330        H  0.05415737  0.28380436  0.06971271     0.13700
C331        C  0.24930330  0.24414583  0.05217350     0.85500
C332        C  0.25144694  0.27030759  0.08018424    -0.54800
C333        C  0.28299640  0.30660254  0.08259156     0.08400
C334        C  0.31848398  0.31009976  0.06194154     0.19300
C335        C  0.26493990  0.27257621  0.02264817    -0.55500
C336        C  0.30331330  0.30593526  0.02744468     0.08500
C337        C  0.28473992  0.23641110  0.05814910    -0.55000
C338        C  0.31955372  0.26984150  0.06670643     0.09100
H339        H  0.23137693  0.25803854  0.10015102     0.13600
H340        H  0.34791852  0.33790012  0.06662013    -0.00700
H341        H  0.24897154  0.26573151  0.00015145     0.13900
H342        H  0.28148573  0.20649305  0.05923651     0.13700
C343        C  0.48048811  0.20970850  0.05316213     0.85500
C344        C  0.00075265  0.20884577  0.08378106    -0.54800
C345        C  0.00585968  0.17783910  0.08862057     0.08400
C346        C  0.47800393  0.14198348  0.06755683     0.19300
C347        C  0.49755204  0.19404913  0.02677264    -0.55500
C348        C  0.49253091  0.15620048  0.03326448     0.08500
C349        C  0.43708552  0.17350904  0.05709292    -0.55000
C350        C  0.43616757  0.14009689  0.06892881     0.09100
H351        H  0.00612127  0.22933849  0.10338602     0.13600
H352        H  0.47645092  0.11310217  0.07408330    -0.00700
H353        H  0.50961422  0.20986256  0.00467714     0.13900
H354        H  0.40981804  0.17565857  0.05537176     0.13700
C355        C  0.48599922  0.21489865  0.40839817     0.85500
C356        C  0.45546661  0.18801598  0.38354133    -0.54800
C357        C  0.45187890  0.15247228  0.37765609     0.08400
C358        C  0.48716469  0.14904925  0.39226334     0.19300
C359        C  0.47900192  0.18645314  0.43668080    -0.55500
C360        C  0.48239043  0.15306309  0.42835435     0.08500
C361        C  0.02688287  0.22241165  0.39413090    -0.55000
C362        C  0.02651946  0.18897274  0.38267601     0.09100
H363        H  0.44287414  0.20015776  0.36710882     0.13600
H364        H  0.48732453  0.12107500  0.38532691    -0.00700
H365        H  0.47469743  0.19345999  0.46068795     0.13900
H366        H  0.05328773  0.25235161  0.39164735     0.13700
C367        C  0.48020691  0.25345296  0.40904684     0.85500
C368        C  0.00010086  0.27461010  0.37784268    -0.54800
C369        C  0.00310689  0.30971396  0.37142425     0.08400
C370        C  0.47518409  0.31721811  0.39375317     0.19300
C371        C  0.49660569  0.28663924  0.43515256    -0.55500
C372        C  0.49031873  0.31868353  0.42841257     0.08500
C373        C  0.43618557  0.24480718  0.40423099    -0.55000
C374        C  0.43371643  0.27668036  0.39278330     0.09100
H375        H  0.00698499  0.25943726  0.35957205     0.13600
H376        H  0.47289258  0.34403096  0.38686599    -0.00700
H377        H  0.50599333  0.28199808  0.45825483     0.13900
H378        H  0.40977073  0.21467118  0.40494631     0.13700
C379        C  0.25719959  0.25818762  0.40951261     0.85500
C380        C  0.27610636  0.25725467  0.37727112    -0.54800
C381        C  0.31132823  0.28904599  0.36963918     0.08400
C382        C  0.31933125  0.32541442  0.39080043     0.19300
C383        C  0.29243440  0.27490988  0.43350926    -0.55500
C384        C  0.32427291  0.31236565  0.42454147     0.08500
C385        C  0.24865744  0.29341846  0.40683178    -0.55000
C386        C  0.27875208  0.32658020  0.39312551     0.09100
H387        H  0.26270224  0.23138235  0.36175084     0.13600
H388        H  0.34537599  0.35418975  0.38236566    -0.00700
H389        H  0.28960449  0.26199782  0.45691706     0.13900
H390        H  0.21911094  0.29029752  0.41097301     0.13700
C391        C  0.25784999  0.48170055  0.05231401     0.85500
C392        C  0.28312866  0.00646006  0.08413126    -0.54800
C393        C  0.31782420  0.00880501  0.09262079     0.08400
C394        C  0.32114537  0.47804570  0.07114454     0.19300
C395        C  0.29096542  0.49641055  0.02688718    -0.55500
C396        C  0.32354271  0.49238141  0.03602392     0.08500
C397        C  0.24918707  0.43821679  0.06002704    -0.55000
C398        C  0.28076396  0.43676279  0.07325747     0.09100
H399        H  0.27064343  0.02099222  0.09819107     0.13600
H400        H  0.34790294  0.47641005  0.07942087    -0.00700
H401        H  0.28722037  0.50504648  0.00319934     0.13900
H402        H  0.21916451  0.41161437  0.05901104     0.13700
C403        C  0.25179141  0.48760341  0.40693244     0.85500
C404        C  0.25296381  0.46277242  0.37905176    -0.54800
C405        C  0.28465537  0.45833915  0.37523947     0.08400
C406        C  0.32077296  0.49060063  0.39563056     0.19300
C407        C  0.26918016  0.47661198  0.43617629    -0.55500
C408        C  0.30748393  0.48208042  0.43101887     0.08500
C409        C  0.28928208  0.02074751  0.37769076    -0.55000
C410        C  0.32341759  0.01971990  0.37089194     0.09100
H411        H  0.23306350  0.45637624  0.35902987     0.13600
H412        H  0.35001874  0.49213499  0.39046676    -0.00700
H413        H  0.25394755  0.46801591  0.45890818     0.13900
H414        H  0.28847393  0.04793254  0.37160013     0.13700
C415        C  0.44371925  0.36599523  0.48512155     0.85500
C416        C  0.44836963  0.34524964  0.45492931    -0.54800
C417        C  0.48272829  0.34171156  0.45428382     0.08400
C418        C  0.00945620  0.35985230  0.48388453     0.19300
C419        C  0.44667109  0.34297146  0.01223438    -0.55500
C420        C  0.47937708  0.33805372  0.01140698     0.08500
C421        C  0.48375236  0.40642564  0.48596112    -0.55000
C422        C  0.01890989  0.40467340  0.48558261     0.09100
H423        H  0.42575445  0.33341927  0.43622275     0.13600
H424        H  0.03668920  0.35648272  0.48410405    -0.00700
H425        H  0.42413756  0.33082138  0.03071957     0.13900
H426        H  0.48407279  0.43450969  0.48340122     0.13700
C427        C  0.02688839  0.09924955  0.47679870     0.85500
C428        C  0.02218609  0.12237686  0.44882648    -0.54800
C429        C  0.48927798  0.12765824  0.45142968     0.08400
C430        C  0.46283141  0.10743899  0.48072643     0.19300
C431        C  0.02557846  0.12199860  0.00644444    -0.55500
C432        C  0.49413064  0.12836112  0.00873375     0.08500
C433        C  0.48745264  0.05976082  0.47857410    -0.55000
C434        C  0.45287832  0.06213979  0.47842230     0.09100
H435        H  0.04370111  0.13425927  0.42957844     0.13600
H436        H  0.43587460  0.11119852  0.48214936    -0.00700
H437        H  0.04921834  0.13252525  0.02388024     0.13900
H438        H  0.48728095  0.03179691  0.48133296     0.13700
C439        C  0.10462630  0.06021784  0.48048936     0.85500
C440        C  0.11388024  0.07854338  0.01402097    -0.54800
C441        C  0.11896040  0.11600860  0.01578016     0.08400
C442        C  0.10757555  0.13016791  0.48490389     0.19300
C443        C  0.06454913  0.05869042  0.47185677    -0.55500
C444        C  0.06497353  0.09486047  0.47589968     0.08500
C445        C  0.13597755  0.09397870  0.45878732    -0.55000
C446        C  0.13588777  0.12953036  0.45960595     0.09100
H447        H  0.11964643  0.06497040  0.03444153     0.13600
H448        H  0.10912807  0.15986963  0.48722278    -0.00700
H449        H  0.03845977  0.03107044  0.46375492     0.13900
H450        H  0.15652795  0.09047184  0.44351418     0.13700
C451        C  0.10555392  0.01922437  0.47860213     0.85500
C452        C  0.13638113  0.01735892  0.00141535    -0.54800
C453        C  0.13316610  0.48079889  0.99965662     0.08400
C454        C  0.10261091  0.44983985  0.47537396     0.19300
C455        C  0.11628416  0.00998636  0.44581765    -0.55500
C456        C  0.11378378  0.47471948  0.44386412     0.08500
C457        C  0.06195109  0.48043119  0.48937882    -0.55000
C458        C  0.06014097  0.44381552  0.48518942     0.09100
H459        H  0.15711838  0.04227026  0.01628784     0.13600
H460        H  0.10327937  0.42121715  0.47346928    -0.00700
H461        H  0.12242152  0.02926508  0.42537857     0.13900
H462        H  0.03758780  0.48373628  0.49910267     0.13700
C463        C  0.36576392  0.40317674  0.47988585     0.85500
C464        C  0.33235146  0.37215026  0.00119770    -0.54800
C465        C  0.33016844  0.33586436  0.00309227     0.08400
C466        C  0.36104855  0.33216868  0.48060585     0.19300
C467        C  0.40472196  0.40442968  0.49052759    -0.55500
C468        C  0.40441121  0.36847040  0.48753465     0.08500
C469        C  0.35649032  0.38142574  0.44722180    -0.55000
C470        C  0.35105996  0.34304082  0.44813650     0.09100
H471        H  0.31073790  0.37779459  0.01265652     0.13600
H472        H  0.35929184  0.30227882  0.48115449    -0.00700
H473        H  0.43078731  0.43242166  0.49792613     0.13900
H474        H  0.35063284  0.39357267  0.42595984     0.13700
C475        C  0.36663246  0.44524811  0.48077576     0.85500
C476        C  0.35594777  0.45688854  0.01290941    -0.54800
C477        C  0.35150825  0.49023456  0.01246531     0.08400
C478        C  0.36889983  0.01730222  0.47978970     0.19300
C479        C  0.33596034  0.44530112  0.45793512    -0.55500
C480        C  0.33454819  0.47973402  0.45601273     0.08500
C481        C  0.40653727  0.48290006  0.47185362    -0.55000
C482        C  0.41209649  0.02296844  0.47533419     0.09100
H483        H  0.34823749  0.43776117  0.03370137     0.13600
H484        H  0.36829093  0.04601551  0.48067481    -0.00700
H485        H  0.31551491  0.41888796  0.44514121     0.13900
H486        H  0.43195339  0.47973884  0.46476959     0.13700
C487        C  0.12366392  0.18886585  0.86102155     0.85500
C488        C  0.09887968  0.15345791  0.83954479    -0.54800
C489        C  0.07273311  0.15819357  0.82012618     0.08400
C490        C  0.06899647  0.19587379  0.82848143     0.19300
C491        C  0.14034762  0.22707893  0.83843628    -0.55500
C492        C  0.11233111  0.23198517  0.82198596     0.08500
C493        C  0.09252145  0.19125376  0.88193402    -0.55000
C494        C  0.06260744  0.19287938  0.86559157     0.09100
H495        H  0.10765978  0.13071915  0.83581037     0.13600
H496        H  0.04469459  0.19743998  0.81517524    -0.00700
H497        H  0.17187021  0.24805052  0.83344959     0.13900
H498        H  0.09347652  0.19048984  0.90767410     0.13700
C499        C  0.04547222  0.18737610  0.60485414     0.85500
C500        C  0.03880632  0.16161947  0.63390985    -0.54800
C501        C  0.07397145  0.17089163  0.64856153     0.08400
C502        C  0.11275770  0.20238886  0.63238610     0.19300
C503        C  0.07309752  0.23230260  0.61734409    -0.55500
C504        C  0.10762693  0.23959734  0.63258448     0.08500
C505        C  0.07372341  0.18090778  0.58331914    -0.55000
C506        C  0.10815680  0.18712179  0.59765787     0.09100
H507        H  0.00925838  0.14090774  0.64362392     0.13600
H508        H  0.14114266  0.20778157  0.64413423    -0.00700
H509        H  0.06539675  0.25591628  0.61741008     0.13900
H510        H  0.06862836  0.17535261  0.55838420     0.13700
C511        C  0.12559754  0.41721665  0.59837375     0.85500
C512        C  0.10513235  0.42988226  0.62216599    -0.54800
C513        C  0.07816969  0.39927886  0.64057516     0.08400
C514        C  0.07198418  0.35707952  0.63217073     0.19300
C515        C  0.14199695  0.39286581  0.61788800    -0.55500
C516        C  0.11476671  0.36234203  0.63646695     0.08500
C517        C  0.09140222  0.38514561  0.57823929    -0.55000
C518        C  0.06301821  0.35361432  0.59553052     0.09100
H519        H  0.11579419  0.46164210  0.62714729     0.13600
H520        H  0.04808311  0.33197292  0.64629283    -0.00700
H521        H  0.17247552  0.39805237  0.61823420     0.13900
H522        H  0.08942233  0.38731937  0.55261790     0.13700
C523        C  0.27622591  0.33831753  0.59896999     0.85500
C524        C  0.31063175  0.36308956  0.62112939    -0.54800
C525        C  0.30534500  0.38982118  0.63878606     0.08400
C526        C  0.26883834  0.39440450  0.62858264     0.19300
C527        C  0.23598807  0.32285676  0.61946234    -0.55500
C528        C  0.23152062  0.35160586  0.63545536     0.08500
C529        C  0.27520843  0.36905099  0.57669446    -0.55000
C530        C  0.27398405  0.39999925  0.59156508     0.09100
H531        H  0.33247417  0.35368999  0.62705271     0.13600
H532        H  0.26762743  0.41951448  0.64087590    -0.00700
H533        H  0.21211560  0.29185458  0.62204934     0.13900
H534        H  0.27482671  0.36643173  0.55137111     0.13700
C535        C  0.14868683  0.31406115  0.70744340     0.85500
C536        C  0.12604878  0.26938375  0.68784247    -0.54800
C537        C  0.12901685  0.27472471  0.65534924     0.08400
C538        C  0.15102804  0.31854725  0.64332369     0.19300
C539        C  0.19319240  0.33798860  0.69068067    -0.55500
C540        C  0.19415427  0.33932639  0.65746583     0.08500
C541        C  0.12858342  0.33848929  0.69091199    -0.55000
C542        C  0.12867767  0.33896141  0.65789245     0.09100
H543        H  0.13501128  0.28675723  0.70611919     0.13600
H544        H  0.15153113  0.31981767  0.61692328    -0.00700
H545        H  0.21970717  0.34858217  0.70521180     0.13900
H546        H  0.11628289  0.35395370  0.70422645     0.13700
C547        C  0.27600781  0.41770539  0.85995128     0.85500
C548        C  0.30763961  0.41999120  0.83664506    -0.54800
C549        C  0.29822563  0.38282493  0.82486149     0.08400
C550        C  0.25989111  0.34705289  0.83789292     0.19300
C551        C  0.23495670  0.39358726  0.84052726    -0.55500
C552        C  0.22610579  0.35684817  0.82875559     0.08500
C553        C  0.27272655  0.38779402  0.88535871    -0.55000
C554        C  0.26785737  0.35249276  0.87395306     0.09100
H555        H  0.33080558  0.44825966  0.82641584     0.13600
H556        H  0.25438332  0.31732934  0.82888853    -0.00700
H557        H  0.21522110  0.40479622  0.83337756     0.13900
H558        H  0.27400201  0.39385871  0.91021280     0.13700
C559        C  0.04355407  0.33957810  0.85526003     0.85500
C560        C  0.03970765  0.36743123  0.83184707    -0.54800
C561        C  0.07584819  0.39425395  0.81865991     0.08400
C562        C  0.11262577  0.39163051  0.82970433     0.19300
C563        C  0.06586978  0.32090452  0.83548367    -0.55500
C564        C  0.10184386  0.34790165  0.82216739     0.08500
C565        C  0.07514660  0.36805371  0.87938998    -0.55000
C566        C  0.11066096  0.39563542  0.86586913     0.09100
H567        H  0.01086102  0.36349520  0.82386309     0.13600
H568        H  0.14166520  0.41485035  0.81901112    -0.00700
H569        H  0.05453736  0.28936280  0.83020187     0.13900
H570        H  0.06889570  0.36883704  0.90446623     0.13700
C571        C  0.15148458  0.31592928  0.75192717     0.85500
C572        C  0.19618951  0.33839955  0.77195263    -0.54800
C573        C  0.19106850  0.33453628  0.80472797     0.08400
C574        C  0.14659911  0.31221183  0.81598667     0.19300
C575        C  0.12725063  0.27090636  0.76790290    -0.55500
C576        C  0.12584956  0.26964677  0.80089498     0.08500
C577        C  0.12695290  0.33540682  0.76862413    -0.55000
C578        C  0.12594127  0.33440086  0.80149639     0.09100
H579        H  0.17906798  0.32933515  0.75323382     0.13600
H580        H  0.14448713  0.31092644  0.84234747    -0.00700
H581        H  0.11543310  0.24358908  0.75375377     0.13900
H582        H  0.11144392  0.34779905  0.75548730     0.13700
C583        C  0.41671570  0.12278527  0.85789298     0.85500
C584        C  0.43305311  0.11359954  0.82892010    -0.54800
C585        C  0.40441129  0.08765375  0.80867416     0.08400
C586        C  0.36003657  0.07106307  0.82017517     0.19300
C587        C  0.38624088  0.13604528  0.84500513    -0.55500
C588        C  0.35804802  0.11034411  0.82382823     0.08500
C589        C  0.38963251  0.08241501  0.87392245    -0.55000
C590        C  0.35881931  0.05503025  0.85522826     0.09100
H591        H  0.46535029  0.12814357  0.82412468     0.13600
H592        H  0.33661790  0.04870098  0.80385561    -0.00700
H593        H  0.38686707  0.16400352  0.85021767     0.13900
H594        H  0.39226220  0.07736284  0.89901295     0.13700
C595        C  0.18652991  0.11482796  0.60578464     0.85500
C596        C  0.15483358  0.08489783  0.62853213    -0.54800
C597        C  0.16476726  0.05807530  0.64142174     0.08400
C598        C  0.20380746  0.06105994  0.62692172     0.19300
C599        C  0.22769523  0.13215263  0.62493681    -0.55500
C600        C  0.23800091  0.10505084  0.63602268     0.08500
C601        C  0.18917504  0.08846972  0.57962931    -0.55000
C602        C  0.19631749  0.05915232  0.59031000     0.09100
H603        H  0.13181231  0.09042287  0.63854012     0.13600
H604        H  0.20991956  0.03706093  0.63527337    -0.00700
H605        H  0.24617749  0.16323748  0.63254588     0.13900
H606        H  0.18477865  0.09219990  0.55471526     0.13700
C607        C  0.41466464  0.27587055  0.60178244     0.85500
C608        C  0.41657216  0.30921558  0.62268152    -0.54800
C609        C  0.37990827  0.29932690  0.63586362     0.08400
C610        C  0.34419946  0.25906608  0.62367754     0.19300
C611        C  0.39323872  0.23731278  0.62328327    -0.55500
C612        C  0.35569603  0.22656200  0.63357678     0.08500
C613        C  0.38401184  0.26969904  0.57584280    -0.55000
C614        C  0.34841901  0.26410122  0.58715659     0.09100
H615        H  0.44514323  0.33304169  0.63221251     0.13600
H616        H  0.31434483  0.25299961  0.63273776    -0.00700
H617        H  0.40797156  0.22161958  0.63290361     0.13900
H618        H  0.39028918  0.27100395  0.55068144     0.13700
C619        C  0.32034367  0.15082074  0.70818947     0.85500
C620        C  0.33715626  0.19520130  0.68882272    -0.54800
C621        C  0.33462950  0.19059109  0.65620641     0.08400
C622        C  0.31927474  0.14700513  0.64400956     0.19300
C623        C  0.27741885  0.12077167  0.69053278    -0.55500
C624        C  0.27649934  0.12016126  0.65747943     0.08500
C625        C  0.34669852  0.13288842  0.69217868    -0.55000
C626        C  0.34649774  0.13201740  0.65915724     0.09100
H627        H  0.32939845  0.17778690  0.70702762     0.13600
H628        H  0.31937426  0.14567126  0.61761946    -0.00700
H629        H  0.25050743  0.10599079  0.70401987     0.13900
H630        H  0.36203094  0.12051457  0.70575101     0.13700
C631        C  0.18740998  0.05262100  0.85652757     0.85500
C632        C  0.15643562  0.05111267  0.83252695    -0.54800
C633        C  0.16594926  0.08861267  0.82107853     0.08400
C634        C  0.20477392  0.12377788  0.83579716     0.19300
C635        C  0.22920609  0.07713785  0.83907183    -0.55500
C636        C  0.23864816  0.11356840  0.82732197     0.08500
C637        C  0.18892367  0.08099191  0.88261545    -0.55000
C638        C  0.19601848  0.11741658  0.87185479     0.09100
H639        H  0.13378159  0.02296141  0.82164619     0.13600
H640        H  0.21155111  0.15425695  0.82784084    -0.00700
H641        H  0.24962432  0.06618409  0.83347157     0.13900
H642        H  0.18478446  0.07272532  0.90737582     0.13700
C643        C  0.34317928  0.27893848  0.85720299     0.85500
C644        C  0.37522683  0.31301712  0.83771747    -0.54800
C645        C  0.40228815  0.30409358  0.82387496     0.08400
C646        C  0.39863729  0.26414774  0.83559336     0.19300
C647        C  0.32707363  0.24004347  0.83545443    -0.55500
C648        C  0.35547374  0.23132246  0.82417076     0.08500
C649        C  0.36774278  0.27329347  0.88341830    -0.55000
C650        C  0.39811951  0.26794544  0.87241608     0.09100
H651        H  0.37119200  0.33802678  0.83029197     0.13600
H652        H  0.42327449  0.25915901  0.82693525    -0.00700
H653        H  0.29596564  0.22131916  0.82790455     0.13900
H654        H  0.36460887  0.27747058  0.90848822     0.13700
C655        C  0.31628406  0.14840985  0.75271351     0.85500
C656        C  0.27117863  0.13011032  0.77160030    -0.54800
C657        C  0.27487595  0.13405817  0.80436302     0.08400
C658        C  0.31834494  0.15134794  0.81685842     0.19300
C659        C  0.34390845  0.19267094  0.76953243    -0.55500
C660        C  0.34305357  0.19379952  0.80267698     0.08500
C661        C  0.33559845  0.12429475  0.76997624    -0.55000
C662        C  0.33561356  0.12536257  0.80284436     0.09100
H663        H  0.28879148  0.13786126  0.75325248     0.13600
H664        H  0.31911689  0.15209650  0.84326427    -0.00700
H665        H  0.35921488  0.21966750  0.75530884     0.13900
H666        H  0.34863372  0.10896648  0.75723423     0.13700
C667        C  0.34857281  0.04808287  0.60710814     0.85500
C668        C  0.37936301  0.04603106  0.62844429    -0.54800
C669        C  0.40796831  0.08289952  0.64035257     0.08400
C670        C  0.40384177  0.11879530  0.62875307     0.19300
C671        C  0.33199812  0.07055201  0.62797669    -0.55500
C672        C  0.36015818  0.10764328  0.63909467     0.08500
C673        C  0.37350930  0.07776101  0.58110525    -0.55000
C674        C  0.40331856  0.11355961  0.59188652     0.09100
H675        H  0.37675952  0.01747046  0.63545593     0.13600
H676        H  0.42794415  0.14864945  0.63761514    -0.00700
H677        H  0.30084113  0.05795408  0.63538846     0.13900
H678        H  0.37051148  0.07021224  0.55603973     0.13700
O679        O  0.28619944  0.38353147  0.69202980    -0.58800
C680        C  0.30722590  0.37883489  0.79288932     0.73800
O681        O  0.33448394  0.32546868  0.74564545    -0.60000
C682        C  0.31233029  0.38674997  0.67191182     0.73800
C683        C  0.36257380  0.44380718  0.72973048     0.76100
Cd684      Cd  0.31682072  0.36877659  0.73249641     1.29100
O685        O  0.27827302  0.36444557  0.77285561    -0.58800
O686        O  0.32469942  0.42871719  0.73408253    -0.57700
C687        C  0.30330680  0.29369355  0.73645399     0.76100
O688        O  0.37961830  0.42217689  0.72938311    -0.60000
O689        O  0.34277992  0.38856319  0.78439015    -0.58500
O690        O  0.34111940  0.38123939  0.68082357    -0.58500
O691        O  0.27488798  0.29625982  0.72293563    -0.57600
O692        O  0.39342120  0.28394009  0.68569559    -0.58800
C693        C  0.40634472  0.31136600  0.79011313     0.73800
O694        O  0.42734307  0.37227313  0.72822625    -0.60000
C695        C  0.38094018  0.30401314  0.66959019     0.73800
C696        C  0.30402732  0.25697247  0.73971924     0.76100
Cd697      Cd  0.38060762  0.30199232  0.73120860     1.37500
O698        O  0.41126139  0.28715827  0.77196104    -0.58800
O699        O  0.31256408  0.24511905  0.71460534    -0.57700
C700        C  0.45509469  0.36267880  0.72598070     0.76100
O701        O  0.32109093  0.25532758  0.76479622    -0.60000
O702        O  0.39605246  0.33580483  0.77835130    -0.58500
O703        O  0.36763779  0.32496604  0.68332980    -0.58500
O704        O  0.44580567  0.32552752  0.72340719    -0.57600
O705        O  0.07742360  0.39135553  0.69544237    -0.58800
C706        C  0.07707226  0.41168775  0.78893089     0.73800
O707        O  0.12909774  0.50329602  0.74119442    -0.60000
C708        C  0.07525288  0.41119431  0.67220500     0.73800
C709        C  0.99717656  0.39390004  0.72805041     0.76100
Cd710      Cd  0.07860916  0.43763229  0.73117777     1.37500
O711        O  0.09106677  0.40145215  0.76569076    -0.58800
O712        O  0.02054723  0.37954118  0.73068440    -0.57700
C713        C  0.15821530  0.49597165  0.74079169     0.76100
O714        O  0.01204095  0.43232849  0.72836313    -0.60000
O715        O  0.06340586  0.43566957  0.78516023    -0.58500
O716        O  0.07534715  0.44420443  0.67716005    -0.58500
O717        O  0.15074999  0.46100443  0.73260220    -0.57600
O718        O  0.07203460  0.16501885  0.76353666    -0.58800
C719        C  0.07581691  0.15816875  0.67975863     0.73800
O720        O  0.15605576  0.14616130  0.69696809    -0.60000
C721        C  0.07377588  0.14582631  0.78742275     0.73800
C722        C  0.05483732  0.05655560  0.72643594     0.76100
Cd723      Cd  0.09967972  0.13171319  0.72894537     1.37500
O724        O  0.05239948  0.12229905  0.68827342    -0.58800
O725        O  0.07414509  0.06756043  0.70062644    -0.57700
C726        C  0.18281565  0.16513196  0.71762691     0.76100
O727        O  0.07461137  0.06595320  0.75207618    -0.60000
O728        O  0.10342758  0.18239708  0.69829475    -0.58500
O729        O  0.08307737  0.11890280  0.78245907    -0.58500
O730        O  0.17187234  0.17439103  0.74314423    -0.57600
O731        O  0.18591034  0.12482976  0.77456745    -0.58800
C732        C  0.16083133  0.05326341  0.67575714     0.73800
O733        O  0.20439033  0.05192570  0.77514218    -0.60000
C734        C  0.15943689  0.09315451  0.78773319     0.73800
C735        C  0.22113731  0.16636176  0.71455318     0.76100
Cd736      Cd  0.19423411  0.08966088  0.73265103     1.37500
O737        O  0.18572983  0.04623345  0.68968170    -0.58800
O738        O  0.23827165  0.16535860  0.73979813    -0.57700
C739        C  0.20291588  0.02974819  0.75259377     0.76100
O740        O  0.22246262  0.14572813  0.69192970    -0.60000
O741        O  0.14190598  0.06635392  0.69233636    -0.58500
O742        O  0.13737768  0.06316774  0.77016887    -0.58500
O743        O  0.22836229  0.04710342  0.73071283    -0.57600
O744        O  0.44573655  0.11156772  0.68820404    -0.58800
C745        C  0.41783263  0.08140012  0.77794978     0.73800
O746        O  0.43487326  0.00241814  0.74804273    -0.60000
C747        C  0.43251560  0.08401239  0.66708892     0.73800
C748        C  0.51725766  0.05503421  0.72559593     0.76100
Cd749      Cd  0.44988034  0.06395976  0.72529015     1.37500
O750        O  0.45440682  0.10403267  0.76903337    -0.58800
O751        O  0.51162100  0.07508322  0.74704899    -0.57700
C752        C  0.38518040  0.48530347  0.72580606     0.76100
O753        O  0.49227077  0.04085405  0.70296121    -0.60000
O754        O  0.39429280  0.05287847  0.75993444    -0.58500
O755        O  0.43632640  0.05359668  0.67180255    -0.58500
O756        O  0.38975688  0.00842791  0.71984147    -0.57600
C757        C  0.21806050  0.21554715  0.91159965     0.85500
C758        C  0.19023156  0.21712298  0.88620361    -0.54800
C759        C  0.15539520  0.18401271  0.88016450     0.08400
C760        C  0.15202087  0.14752374  0.89905702     0.19300
C761        C  0.19062597  0.19803719  0.94077958    -0.55500
C762        C  0.15683404  0.16066742  0.93469555     0.08500
C763        C  0.22540651  0.18089662  0.90138724    -0.55000
C764        C  0.19182660  0.14684423  0.89216626     0.09100
H765        H  0.19803387  0.24432232  0.87386719     0.13600
H766        H  0.12401542  0.11851256  0.89377336    -0.00700
H767        H  0.19935316  0.21180628  0.96398906     0.13900
H768        H  0.25536863  0.18456094  0.89847470     0.13700
C769        C  0.20675011  0.47933484  0.90429654     0.85500
C770        C  0.21305065  0.00930635  0.87429012    -0.54800
C771        C  0.17990224  0.01201300  0.86976409     0.08400
C772        C  0.13720366  0.47119971  0.88597844     0.19300
C773        C  0.18454073  0.48805741  0.93082099    -0.55500
C774        C  0.14638527  0.48014786  0.92165314     0.08500
C775        C  0.17470082  0.43566033  0.89425678    -0.55000
C776        C  0.14007147  0.43227655  0.88266657     0.09100
H777        H  0.22790963  0.01017328  0.85221619     0.13600
H778        H  0.10758992  0.46714553  0.87818684    -0.00700
H779        H  0.19627087  0.49668789  0.95463756     0.13900
H780        H  0.18003116  0.41025119  0.89413119     0.13700
C781        C  0.20584804  0.20597816  0.55667297     0.85500
C782        C  0.20972846  0.18191709  0.58407311    -0.54800
C783        C  0.17740629  0.14695959  0.59224598     0.08400
C784        C  0.13893302  0.14174914  0.57494633     0.19300
C785        C  0.18491371  0.17558300  0.53008653    -0.55500
C786        C  0.14824877  0.14365691  0.53905054     0.08500
C787        C  0.17241639  0.21485159  0.56846735    -0.55000
C788        C  0.13915147  0.18215377  0.58037301     0.09100
H789        H  0.23758268  0.19295332  0.59659263     0.13600
H790        H  0.11039497  0.11455879  0.58236390    -0.00700
H791        H  0.19687240  0.17945307  0.50638346     0.13900
H792        H  0.17587961  0.24485977  0.56931845     0.13700
C793        C  0.21885789  0.48573936  0.54971484     0.85500
C794        C  0.19297400  0.45937855  0.57678928    -0.54800
C795        C  0.15635241  0.45387484  0.57990870     0.08400
C796        C  0.15110237  0.48495619  0.56018402     0.19300
C797        C  0.19080290  0.47219520  0.52038179    -0.55500
C798        C  0.15593493  0.47401024  0.52532225     0.08500
C799        C  0.22859437  0.02794720  0.55968526    -0.55000
C800        C  0.19405161  0.02684676  0.56872247     0.09100
H801        H  0.20558254  0.44939966  0.59493166     0.13600
H802        H  0.12205642  0.48412440  0.56475513    -0.00700
H803        H  0.19986254  0.46628127  0.49759858     0.13900
H804        H  0.25796177  0.05501620  0.56279758     0.13700
C805        C  0.48595845  0.25303567  0.55513112     0.85500
C806        C  0.45600762  0.25015523  0.58025410    -0.54800
C807        C  0.45473085  0.28330544  0.58794252     0.08400
C808        C  0.48846464  0.32075529  0.57085429     0.19300
C809        C  0.47838874  0.27347908  0.52690919    -0.55500
C810        C  0.48212454  0.31023418  0.53496309     0.08500
C811        C  0.02725805  0.28680075  0.56888712    -0.55000
C812        C  0.02712737  0.32034388  0.57951407     0.09100
H813        H  0.43595168  0.22214042  0.59133528     0.13600
H814        H  0.48952169  0.34947210  0.57726942    -0.00700
H815        H  0.47121339  0.26060364  0.50326803     0.13900
H816        H  0.05382000  0.28354972  0.57105583     0.13700
C817        C  0.24948924  0.24380621  0.55221620     0.85500
C818        C  0.25167583  0.27001578  0.58018903    -0.54800
C819        C  0.28319319  0.30631808  0.58250705     0.08400
C820        C  0.31871409  0.30970046  0.56195088     0.19300
C821        C  0.26519411  0.27217929  0.52265281    -0.55500
C822        C  0.30358770  0.30551305  0.52742933     0.08500
C823        C  0.28485900  0.23599286  0.55823591    -0.55000
C824        C  0.31968005  0.26937328  0.56683143     0.09100
H825        H  0.23187504  0.25770838  0.60032576     0.13600
H826        H  0.34816780  0.33747828  0.56662829    -0.00700
H827        H  0.24921422  0.26534472  0.50016298     0.13900
H828        H  0.28155834  0.20605535  0.55932772     0.13700
C829        C  0.48037809  0.20919205  0.55393091     0.85500
C830        C  0.00041955  0.20809913  0.58420167    -0.54800
C831        C  0.00556957  0.17708684  0.58890491     0.08400
C832        C  0.47805630  0.14142738  0.56798154     0.19300
C833        C  0.49684467  0.19338906  0.52718671    -0.55500
C834        C  0.49194449  0.15554877  0.53351029     0.08500
C835        C  0.43703664  0.17304613  0.55833237    -0.55000
C836        C  0.43625201  0.13958254  0.56988122     0.09100
H837        H  0.00538467  0.22824081  0.60399416     0.13600
H838        H  0.47663256  0.11257375  0.57439251    -0.00700
H839        H  0.50845685  0.20914098  0.50500648     0.13900
H840        H  0.40976270  0.17523232  0.55700278     0.13700
C841        C  0.48583384  0.21525936  0.90885769     0.85500
C842        C  0.45523015  0.18823498  0.88407055    -0.54800
C843        C  0.45187621  0.15283399  0.87804292     0.08400
C844        C  0.48739903  0.14967894  0.89249186     0.19300
C845        C  0.47904758  0.18675212  0.93707235    -0.55500
C846        C  0.48269537  0.15352357  0.92859619     0.08500
C847        C  0.02704213  0.22255557  0.89467509    -0.55000
C848        C  0.02678555  0.18926879  0.88306922     0.09100
H849        H  0.44219076  0.20014641  0.86787306     0.13600
H850        H  0.48777477  0.12184852  0.88544218    -0.00700
H851        H  0.47452142  0.19351644  0.96109185     0.13900
H852        H  0.05346347  0.25253043  0.89243065     0.13700
C853        C  0.47992470  0.25373710  0.90938127     0.85500
C854        C  0.00031214  0.27451059  0.87780830    -0.54800
C855        C  0.00344473  0.30961876  0.87128752     0.08400
C856        C  0.47442717  0.31709251  0.89366226     0.19300
C857        C  0.49669598  0.28738713  0.93511378    -0.55500
C858        C  0.49009561  0.31919067  0.92817069     0.08500
C859        C  0.43578996  0.24485048  0.90499283    -0.55000
C860        C  0.43303296  0.27643060  0.89326135     0.09100
H861        H  0.00756415  0.25942906  0.85969715     0.13600
H862        H  0.47185677  0.34369537  0.88660013    -0.00700
H863        H  0.50674050  0.28331897  0.95811934     0.13900
H864        H  0.40948515  0.21466167  0.90604592     0.13700
C865        C  0.25710866  0.25823333  0.90954982     0.85500
C866        C  0.27603931  0.25720529  0.87734620    -0.54800
C867        C  0.31122650  0.28901672  0.86963064     0.08400
C868        C  0.31931843  0.32538797  0.89080113     0.19300
C869        C  0.29230404  0.27496491  0.93355875    -0.55500
C870        C  0.32417664  0.31237276  0.92456091     0.08500
C871        C  0.24862949  0.29352078  0.90673243    -0.55000
C872        C  0.27884862  0.32669035  0.89310009     0.09100
H873        H  0.26273850  0.23120006  0.86195919     0.13600
H874        H  0.34542319  0.35412977  0.88238037    -0.00700
H875        H  0.28938223  0.26215762  0.95702056     0.13900
H876        H  0.21908647  0.29045576  0.91075446     0.13700
C877        C  0.25764892  0.48136902  0.55247105     0.85500
C878        C  0.28267740  0.00533306  0.58408578    -0.54800
C879        C  0.31745528  0.00773847  0.59246351     0.08400
C880        C  0.32105215  0.47793619  0.57130335     0.19300
C881        C  0.29093971  0.49641969  0.52713433    -0.55500
C882        C  0.32351774  0.49236218  0.53624070     0.08500
C883        C  0.24912977  0.43787219  0.55992924    -0.55000
C884        C  0.28076030  0.43648987  0.57316653     0.09100
H885        H  0.26989340  0.01929732  0.59847648     0.13600
H886        H  0.34786201  0.47642234  0.57962021    -0.00700
H887        H  0.28718822  0.50504812  0.50344511     0.13900
H888        H  0.21916989  0.41119595  0.55877670     0.13700
C889        C  0.25194898  0.48755344  0.90668381     0.85500
C890        C  0.25322042  0.46260747  0.87890621    -0.54800
C891        C  0.28525547  0.45868059  0.87484875     0.08400
C892        C  0.32116296  0.49106771  0.89539309     0.19300
C893        C  0.26937754  0.47676518  0.93591655    -0.55500
C894        C  0.30772679  0.48244040  0.93078404     0.08500
C895        C  0.28938280  0.02095499  0.87824687    -0.55000
C896        C  0.32355275  0.01998078  0.87152259     0.09100
H897        H  0.23206963  0.45447000  0.85965915     0.13600
H898        H  0.35054124  0.49284481  0.89032746    -0.00700
H899        H  0.25409520  0.46806344  0.95862630     0.13900
H900        H  0.28854588  0.04811140  0.87210772     0.13700
C901        C  0.44365504  0.36659318  0.98482649     0.85500
C902        C  0.44829002  0.34597835  0.95455577    -0.54800
C903        C  0.48268313  0.34249178  0.95384905     0.08400
C904        C  0.00958921  0.36021086  0.98353363     0.19300
C905        C  0.44661355  0.34244002  0.51263506    -0.55500
C906        C  0.47925600  0.33741365  0.51195390     0.08500
C907        C  0.48370939  0.40708342  0.98570925    -0.55000
C908        C  0.01904910  0.40502080  0.98513861     0.09100
H909        H  0.42557468  0.33405157  0.93591880     0.13600
H910        H  0.03680925  0.35682071  0.98385322    -0.00700
H911        H  0.42402101  0.33040728  0.53108424     0.13900
H912        H  0.48404645  0.43520420  0.98339609     0.13700
C913        C  0.02684262  0.09937288  0.97696136     0.85500
C914        C  0.02204739  0.12229428  0.94886694    -0.54800
C915        C  0.48959264  0.12795609  0.95149681     0.08400
C916        C  0.46324957  0.10784298  0.98081780     0.19300
C917        C  0.02547762  0.12159151  0.50641643    -0.55500
C918        C  0.49358766  0.12785787  0.50878086     0.08500
C919        C  0.48774299  0.06007189  0.97877000    -0.55000
C920        C  0.45321589  0.06253437  0.97861838     0.09100
H921        H  0.04353607  0.13410523  0.92958699     0.13600
H922        H  0.43633118  0.11166354  0.98228795    -0.00700
H923        H  0.04904035  0.13194749  0.52390822     0.13900
H924        H  0.48749910  0.03208496  0.98167598     0.13700
C925        C  0.10453520  0.06017583  0.98060057     0.85500
C926        C  0.11388165  0.07852306  0.51393266    -0.54800
C927        C  0.11895652  0.11598641  0.51570123     0.08400
C928        C  0.10751583  0.13016589  0.98500949     0.19300
C929        C  0.06441233  0.05866839  0.97205014    -0.55500
C930        C  0.06488420  0.09488054  0.97607280     0.08500
C931        C  0.13580786  0.09391952  0.95883275    -0.55000
C932        C  0.13574419  0.12949054  0.95966594     0.09100
H933        H  0.11967143  0.06494257  0.53433985     0.13600
H934        H  0.10911211  0.15988750  0.98732859    -0.00700
H935        H  0.03825350  0.03105512  0.96401738     0.13900
H936        H  0.15631353  0.09040926  0.94352195     0.13700
C937        C  0.10553651  0.01916828  0.97876274     0.85500
C938        C  0.13649977  0.01748672  0.50115239    -0.54800
C939        C  0.13321236  0.48071755  0.49954683     0.08400
C940        C  0.10279754  0.45014235  0.97528312     0.19300
C941        C  0.11640313  0.00993476  0.94603396    -0.55500
C942        C  0.11431684  0.47527320  0.94391882     0.08500
C943        C  0.06203770  0.48069990  0.98912244    -0.55000
C944        C  0.06026369  0.44411607  0.98487776     0.09100
H945        H  0.15726671  0.04240131  0.51601623     0.13600
H946        H  0.10344774  0.42151473  0.97331221    -0.00700
H947        H  0.12261373  0.02919190  0.92557372     0.13900
H948        H  0.03760555  0.48394682  0.99877181     0.13700
C949        C  0.36546485  0.40337903  0.97973174     0.85500
C950        C  0.33259626  0.37181807  0.50125674    -0.54800
C951        C  0.33038353  0.33550290  0.50307135     0.08400
C952        C  0.36083384  0.33245698  0.98063979     0.19300
C953        C  0.40446663  0.40474466  0.99033415    -0.55500
C954        C  0.40423278  0.36885521  0.98739702     0.08500
C955        C  0.35603416  0.38148204  0.94713741    -0.55000
C956        C  0.35071537  0.34314516  0.94816045     0.09100
H957        H  0.31099101  0.37742135  0.51274384     0.13600
H958        H  0.35909942  0.30258070  0.98127708    -0.00700
H959        H  0.43053267  0.43278138  0.99764052     0.13900
H960        H  0.35003067  0.39350748  0.92586899     0.13700
C961        C  0.36649154  0.44543799  0.98055128     0.85500
C962        C  0.35574196  0.45653477  0.51308781    -0.54800
C963        C  0.35125687  0.48988088  0.51262269     0.08400
C964        C  0.36922420  0.01778123  0.98027965     0.19300
C965        C  0.33569642  0.44545704  0.95787023    -0.55500
C966        C  0.33456380  0.48000753  0.95585542     0.08500
C967        C  0.40640307  0.48295938  0.97141472    -0.55000
C968        C  0.41238887  0.02341676  0.97561862     0.09100
H969        H  0.34797492  0.43738522  0.53386875     0.13600
H970        H  0.36864108  0.04650756  0.98119332    -0.00700
H971        H  0.31501144  0.41897996  0.94523196     0.13900
H972        H  0.43171995  0.47970349  0.96419439     0.13700
C973        C  0.12847529  0.68887332  0.36261398     0.85500
C974        C  0.10764048  0.65538035  0.33903370    -0.54800
C975        C  0.08303584  0.66045864  0.31902025     0.08400
C976        C  0.07434826  0.69479483  0.32903462     0.19300
C977        C  0.14437864  0.73015099  0.34339006    -0.55500
C978        C  0.11629885  0.73362572  0.32526833     0.08500
C979        C  0.09449500  0.68638545  0.38287708    -0.55000
C980        C  0.06510796  0.68831531  0.36593546     0.09100
H981        H  0.11925028  0.63504147  0.33395359     0.13600
H982        H  0.05011195  0.69535877  0.31483786    -0.00700
H983        H  0.17515985  0.75494545  0.34279671     0.13900
H984        H  0.09402458  0.68373423  0.40854349     0.13700
C985        C  0.04950399  0.68690472  0.10354680     0.85500
C986        C  0.05289283  0.65712214  0.12608834    -0.54800
C987        C  0.09223524  0.67071755  0.13564863     0.08400
C988        C  0.12378104  0.71098870  0.12188336     0.19300
C989        C  0.07119026  0.72773104  0.12340894    -0.55500
C990        C  0.10987229  0.74071118  0.13271593     0.08500
C991        C  0.07895138  0.69286929  0.07647914    -0.55000
C992        C  0.11664623  0.70278851  0.08639006     0.09100
H993        H  0.02685492  0.63197681  0.13725774     0.13600
H994        H  0.15532883  0.72044714  0.12919586    -0.00700
H995        H  0.05658852  0.74322349  0.13339609     0.13900
H996        H  0.06990583  0.68614075  0.05193548     0.13700
C997        C  0.12988371  0.91809387  0.09950910     0.85500
C998        C  0.10777458  0.93058784  0.12181343    -0.54800
C999        C  0.08035497  0.90003312  0.14005033     0.08400
C1000       C  0.07503163  0.85790993  0.13241529     0.19300
C1001       C  0.14590641  0.89492938  0.12077866    -0.55500
C1002       C  0.11783226  0.86369319  0.13824984     0.08500
C1003       C  0.09690591  0.88547499  0.07876477    -0.55000
C1004       C  0.06764439  0.85413446  0.09564663     0.09100
H1005       H  0.11805756  0.96234877  0.12643656     0.13600
H1006       H  0.05060366  0.83273876  0.14612622    -0.00700
H1007       H  0.17682306  0.90203124  0.12385686     0.13900
H1008       H  0.09596742  0.88756592  0.05305422     0.13700
C1009       C  0.27980207  0.84077001  0.10051359     0.85500
C1010       C  0.31361819  0.86554556  0.12349317    -0.54800
C1011       C  0.30808943  0.89290990  0.14050443     0.08400
C1012       C  0.27178579  0.89718548  0.12927933     0.19300
C1013       C  0.23959630  0.82539097  0.12098689    -0.55500
C1014       C  0.23444584  0.85411616  0.13634406     0.08500
C1015       C  0.27966464  0.87160785  0.07798297    -0.55000
C1016       C  0.27836429  0.90269034  0.09222188     0.09100
H1017       H  0.33494207  0.85586053  0.13030534     0.13600
H1018       H  0.27020035  0.92239553  0.14104069    -0.00700
H1019       H  0.21741821  0.79425689  0.12574396     0.13900
H1020       H  0.28131132  0.86954640  0.05267138     0.13700
C1021       C  0.15139032  0.81514673  0.20895429     0.85500
C1022       C  0.12866251  0.77054820  0.18908071    -0.54800
C1023       C  0.13179051  0.77568435  0.15635946     0.08400
C1024       C  0.15372006  0.81975972  0.14472400     0.19300
C1025       C  0.19601771  0.83945112  0.19199387    -0.55500
C1026       C  0.19696692  0.84105621  0.15872855     0.08500
C1027       C  0.13099665  0.83928290  0.19258195    -0.55000
C1028       C  0.13110667  0.83982601  0.15956374     0.09100
H1029       H  0.13810425  0.78781662  0.20760727     0.13600
H1030       H  0.15416244  0.82129802  0.11833469    -0.00700
H1031       H  0.22282007  0.85017199  0.20629394     0.13900
H1032       H  0.11851544  0.85452675  0.20600474     0.13700
C1033       C  0.27831739  0.90932612  0.36522727     0.85500
C1034       C  0.31086629  0.91226012  0.34273515    -0.54800
C1035       C  0.30019774  0.87590264  0.32876226     0.08400
C1036       C  0.25995815  0.84053710  0.33946109     0.19300
C1037       C  0.23909832  0.89025078  0.34412170    -0.55500
C1038       C  0.22879820  0.85402723  0.33042852     0.08500
C1039       C  0.27166214  0.87706995  0.38921454    -0.55000
C1040       C  0.26557682  0.84260369  0.37581363     0.09100
H1041       H  0.33522498  0.94091040  0.33402394     0.13600
H1042       H  0.25314124  0.81101883  0.32903268    -0.00700
H1043       H  0.22219787  0.90545627  0.33894907     0.13900
H1044       H  0.27457965  0.88159502  0.41463190     0.13700
C1045       C  0.04660245  0.83947902  0.35634101     0.85500
C1046       C  0.03836782  0.86030404  0.32913690    -0.54800
C1047       C  0.07305899  0.88771746  0.31457352     0.08400
C1048       C  0.11227507  0.89209786  0.32703508     0.19300
C1049       C  0.07296475  0.82233931  0.34081348    -0.55500
C1050       C  0.10626429  0.84949105  0.32454629     0.08500
C1051       C  0.07658238  0.87410180  0.37789377    -0.55000
C1052       C  0.11044617  0.90174777  0.36216370     0.09100
H1053       H  0.00834168  0.85290213  0.32116036     0.13600
H1054       H  0.13982452  0.91520564  0.31449143    -0.00700
H1055       H  0.06637990  0.79138343  0.34074278     0.13900
H1056       H  0.07140374  0.87691875  0.40290684     0.13700
C1057       C  0.15416286  0.81703503  0.25370191     0.85500
C1058       C  0.19895831  0.83778949  0.27345939    -0.54800
C1059       C  0.19403046  0.83430795  0.30628003     0.08400
C1060       C  0.15018634  0.81339719  0.31800043     0.19300
C1061       C  0.12820409  0.77245864  0.27006692    -0.55500
C1062       C  0.12869892  0.77093454  0.30336066     0.08500
C1063       C  0.13131624  0.83792387  0.27080028    -0.55000
C1064       C  0.13030984  0.83638213  0.30372350     0.09100
H1065       H  0.18169316  0.82933883  0.25478633     0.13600
H1066       H  0.14855701  0.81241081  0.34439357    -0.00700
H1067       H  0.11232019  0.74630698  0.25509190     0.13900
H1068       H  0.11635410  0.85097617  0.25783129     0.13700
C1069       C  0.41688645  0.62042167  0.35709600     0.85500
C1070       C  0.42140661  0.59087157  0.33654797    -0.54800
C1071       C  0.38642305  0.56369840  0.32161325     0.08400
C1072       C  0.34867067  0.56570353  0.33206413     0.19300
C1073       C  0.39505473  0.63712687  0.33502412    -0.55500
C1074       C  0.35888844  0.60902502  0.32239678     0.08500
C1075       C  0.38585267  0.59421955  0.38185386    -0.55000
C1076       C  0.35082989  0.56466455  0.36918588     0.09100
H1077       H  0.45121956  0.59638821  0.32966327     0.13600
H1078       H  0.31990766  0.54118598  0.32189877    -0.00700
H1079       H  0.40772397  0.66831865  0.32772402     0.13900
H1080       H  0.39219063  0.59674474  0.40720840     0.13700
C1081       C  0.18586043  0.61972885  0.10235483     0.85500
C1082       C  0.15383099  0.59056837  0.12531461    -0.54800
C1083       C  0.16198205  0.56237507  0.13789471     0.08400
C1084       C  0.20070017  0.56410775  0.12402175     0.19300
C1085       C  0.22713150  0.63572519  0.12128771    -0.55500
C1086       C  0.23607089  0.60777889  0.13300215     0.08500
C1087       C  0.18753622  0.59208887  0.07632753    -0.55000
C1088       C  0.19325427  0.56166853  0.08734354     0.09100
H1089       H  0.13105675  0.59663247  0.13503890     0.13600
H1090       H  0.20577880  0.53955011  0.13266574    -0.00700
H1091       H  0.24705606  0.66677324  0.12825849     0.13900
H1092       H  0.18397266  0.59595143  0.05131036     0.13700
C1093       C  0.41805370  0.77632802  0.10121751     0.85500
C1094       C  0.42192998  0.80996723  0.12250905    -0.54800
C1095       C  0.38599544  0.80157772  0.13588443     0.08400
C1096       C  0.34886326  0.76229516  0.12403192     0.19300
C1097       C  0.39518811  0.73725462  0.12238378    -0.55500
C1098       C  0.35828232  0.72832116  0.13338449     0.08500
C1099       C  0.38747882  0.77193279  0.07565714    -0.55000
C1100       C  0.35236334  0.76718651  0.08761778     0.09100
H1101       H  0.45105659  0.83283447  0.13199510     0.13600
H1102       H  0.31972714  0.75770474  0.13357296    -0.00700
H1103       H  0.40823368  0.71966461  0.13124947     0.13900
H1104       H  0.39340460  0.77358172  0.05040882     0.13700
C1105       C  0.31827396  0.64957341  0.20647312     0.85500
C1106       C  0.33696562  0.69501836  0.18824381    -0.54800
C1107       C  0.33503209  0.69183649  0.15540092     0.08400
C1108       C  0.31787416  0.64851493  0.14207398     0.19300
C1109       C  0.27517396  0.62109594  0.18806632    -0.55500
C1110       C  0.27453565  0.62210697  0.15494480     0.08500
C1111       C  0.34349569  0.63108541  0.18965409    -0.55000
C1112       C  0.34383738  0.63176717  0.15662023     0.09100
H1113       H  0.32763520  0.67668698  0.20605982     0.13600
H1114       H  0.31835438  0.64827274  0.11566220    -0.00700
H1115       H  0.24800909  0.60548270  0.20120279     0.13900
H1116       H  0.35746454  0.61705434  0.20277829     0.13700
C1117       C  0.18174803  0.54592039  0.35355360     0.85500
C1118       C  0.15115892  0.54726645  0.33048743    -0.54800
C1119       C  0.16305911  0.58586606  0.31968927     0.08400
C1120       C  0.20290674  0.61923963  0.33527481     0.19300
C1121       C  0.22265136  0.56888445  0.33444362    -0.55500
C1122       C  0.23540108  0.60739480  0.32544086     0.08500
C1123       C  0.18543880  0.57425011  0.38062950    -0.55000
C1124       C  0.19425173  0.61159767  0.37133592     0.09100
H1125       H  0.12770188  0.52011743  0.31897859     0.13600
H1126       H  0.21104423  0.65046942  0.32837634    -0.00700
H1127       H  0.23795551  0.55407436  0.32422459     0.13900
H1128       H  0.17997800  0.56479620  0.40521448     0.13700
C1129       C  0.34565261  0.77489162  0.35746970     0.85500
C1130       C  0.37674183  0.80896003  0.33749149    -0.54800
C1131       C  0.40329937  0.79988123  0.32277076     0.08400
C1132       C  0.40021335  0.76003999  0.33432582     0.19300
C1133       C  0.32883871  0.73638595  0.33543487    -0.55500
C1134       C  0.35633481  0.72708009  0.32375588     0.08500
C1135       C  0.37111474  0.76972304  0.38300969    -0.55000
C1136       C  0.40135629  0.76479656  0.37131670     0.09100
H1137       H  0.37217731  0.83375121  0.33043577     0.13600
H1138       H  0.42451522  0.75498195  0.32496232    -0.00700
H1139       H  0.29778324  0.71894927  0.32725814     0.13900
H1140       H  0.36862132  0.77425290  0.40816119     0.13700
C1141       C  0.31456926  0.64558218  0.25120175     0.85500
C1142       C  0.26942410  0.62596209  0.27021441    -0.54800
C1143       C  0.27266459  0.62884232  0.30302024     0.08400
C1144       C  0.31655556  0.64681853  0.31557699     0.19300
C1145       C  0.34164146  0.68946237  0.26861268    -0.55500
C1146       C  0.34165559  0.68970826  0.30174841     0.08500
C1147       C  0.33509885  0.62211445  0.26811545    -0.55000
C1148       C  0.33468979  0.62198065  0.30117936     0.09100
H1149       H  0.28728154  0.63412960  0.25196084     0.13600
H1150       H  0.31748076  0.64708963  0.34198482    -0.00700
H1151       H  0.35659525  0.71691317  0.25488524     0.13900
H1152       H  0.34953884  0.60877964  0.25480763     0.13700
C1153       C  0.34545116  0.54814699  0.10413669     0.85500
C1154       C  0.37561122  0.54551703  0.12559338    -0.54800
C1155       C  0.40363750  0.58209993  0.13800975     0.08400
C1156       C  0.40064602  0.61833985  0.12591479     0.19300
C1157       C  0.32905264  0.57107909  0.12471068    -0.55500
C1158       C  0.35719602  0.60797200  0.13571304     0.08500
C1159       C  0.37125721  0.57744491  0.07805910    -0.55000
C1160       C  0.40130080  0.61312958  0.08925151     0.09100
H1161       H  0.37101053  0.51669268  0.13419816     0.13600
H1162       H  0.42509049  0.64795836  0.13488658    -0.00700
H1163       H  0.29813297  0.55847934  0.13277747     0.13900
H1164       H  0.36894372  0.56936811  0.05310689     0.13700
O1165       O  0.29023221  0.89165838  0.19406651    -0.58800
C1166       C  0.30878816  0.87536804  0.29623858     0.73800
O1167       O  0.33721849  0.82827861  0.23505038    -0.60000
C1168       C  0.31536036  0.89220381  0.17409439     0.73800
C1169       C  0.37127605  0.94637266  0.24025823     0.76100
Cd1170     Cd  0.31797176  0.87224746  0.23535279     1.29100
O1171       O  0.28154539  0.86993609  0.27612406    -0.58800
O1172       O  0.33397964  0.93584260  0.24030553    -0.57700
C1173       C  0.30315269  0.79641797  0.23390880     0.76100
O1174       O  0.38323402  0.92065765  0.24170535    -0.60000
O1175       O  0.34214068  0.87907863  0.28736124    -0.58500
O1176       O  0.34307784  0.88564128  0.18373796    -0.58500
O1177       O  0.27124905  0.79894934  0.23175987    -0.57600
O1178       O  0.39854884  0.78508998  0.18557628    -0.58800
C1179       C  0.40636482  0.80726169  0.28901033     0.73800
O1180       O  0.42809662  0.87494236  0.22925407    -0.60000
C1181       C  0.38743613  0.80629934  0.16931361     0.73800
C1182       C  0.30381649  0.75948435  0.23517854     0.76100
Cd1183     Cd  0.38324809  0.80269603  0.23007261     1.37500
O1184       O  0.41156699  0.78375736  0.27020310    -0.58800
O1185       O  0.31490389  0.75099342  0.20961089    -0.57700
C1186       C  0.45684720  0.86697167  0.22590602     0.76100
O1187       O  0.32009471  0.75625014  0.26019113    -0.60000
O1188       O  0.39576100  0.83181641  0.27800003    -0.58500
O1189       O  0.37473390  0.82796275  0.18255695    -0.58500
O1190       O  0.44876978  0.83034647  0.22259330    -0.57600
O1191       O  0.08032426  0.89285622  0.19487144    -0.58800
C1192       C  0.07405390  0.90617154  0.28568968     0.73800
O1193       O  0.13292060  0.00312736  0.24561475    -0.60000
C1194       C  0.07788316  0.91244456  0.17159260     0.73800
C1195       C  0.99980660  0.89813268  0.22767371     0.76100
Cd1196     Cd  0.08180189  0.93931591  0.23033002     1.37500
O1197       O  0.08832433  0.89713638  0.26195695    -0.58800
O1198       O  0.02264594  0.88320786  0.22993428    -0.57700
C1199       C  0.16273202  0.99720973  0.24351896     0.76100
O1200       O  0.01553998  0.93669569  0.22729473    -0.60000
O1201       O  0.06299410  0.93239366  0.28364942    -0.58500
O1202       O  0.07836698  0.94568490  0.17640124    -0.58500
O1203       O  0.15583076  0.96361171  0.23222805    -0.57600
O1204       O  0.11114336  0.68935623  0.26987223    -0.58800
C1205       C  0.10203561  0.66319913  0.16653523     0.73800
O1206       O  0.15772660  0.63455963  0.22101204    -0.60000
C1207       C  0.09508075  0.65794071  0.28696292     0.73800
C1208       C  0.04189250  0.62204470  0.22730468     0.76100
Cd1209     Cd  0.11773448  0.65793971  0.22672794     1.37500
O1210       O  0.11890024  0.69315286  0.18552993    -0.58800
O1211       O  0.06081006  0.66058756  0.22518636    -0.57700
C1212       C  0.19025802  0.66817632  0.21855928     0.76100
O1213       O  0.06000333  0.60140936  0.22624208    -0.60000
O1214       O  0.09487305  0.62846334  0.17526947    -0.58500
O1215       O  0.09543433  0.62659292  0.27705190    -0.58500
O1216       O  0.19046702  0.70105589  0.22393749    -0.57600
O1217       O  0.18733007  0.62273337  0.27327832    -0.58800
C1218       C  0.15430451  0.55347329  0.17164276     0.73800
O1219       O  0.20261010  0.55012291  0.26907042    -0.60000
C1220       C  0.15855193  0.59197129  0.28592032     0.73800
C1221       C  0.22480907  0.66592527  0.20945977     0.76100
Cd1222     Cd  0.19047692  0.58781344  0.22814785     1.37500
O1223       O  0.17612184  0.54226303  0.18553888    -0.58800
O1224       O  0.24434225  0.66224038  0.23185726    -0.57700
C1225       C  0.19934129  0.52719030  0.24657566     0.76100
O1226       O  0.21700463  0.64229537  0.18653161    -0.60000
O1227       O  0.13638980  0.56747961  0.18852809    -0.58500
O1228       O  0.13414236  0.56382423  0.26758829    -0.58500
O1229       O  0.22229872  0.54355116  0.22315522    -0.57600
O1230       O  0.41421296  0.60182288  0.19165032    -0.58800
C1231       C  0.39326407  0.55676320  0.28923615     0.73800
O1232       O  0.42509195  0.50291148  0.23005316    -0.60000
C1233       C  0.41712926  0.58091654  0.16938199     0.73800
C1234       C  0.49992865  0.60191775  0.23149837     0.76100
Cd1235     Cd  0.42302037  0.56150924  0.22968434     1.37500
O1236       O  0.37660495  0.56434629  0.26624049    -0.58800
O1237       O  0.48122749  0.62125962  0.23564307    -0.57700
C1238       C  0.39914010  0.98694861  0.23584572     0.76100
O1239       O  0.48151849  0.56380986  0.23047241    -0.60000
O1240       O  0.42161689  0.54981439  0.28344133    -0.58500
O1241       O  0.42617282  0.55420083  0.17587689    -0.58500
O1242       O  0.36862025  0.50359376  0.21949173    -0.57600
C1243       C  0.22074038  0.70938087  0.41286075     0.85500
C1244       C  0.19585875  0.71210647  0.38496390    -0.54800
C1245       C  0.15901824  0.68185819  0.38076883     0.08400
C1246       C  0.15265839  0.64435820  0.39926922     0.19300
C1247       C  0.19134608  0.69413147  0.44107251    -0.55500
C1248       C  0.15654703  0.65797396  0.43439209     0.08500
C1249       C  0.22563495  0.67276341  0.40422804    -0.55000
C1250       C  0.19120683  0.64042688  0.39351809     0.09100
H1251       H  0.20803611  0.73708289  0.36877922     0.13600
H1252       H  0.12364973  0.61653215  0.39356671    -0.00700
H1253       H  0.19919532  0.70836014  0.46418114     0.13900
H1254       H  0.25477604  0.67429682  0.40240624     0.13700
C1255       C  0.21207312  0.98017665  0.39826083     0.85500
C1256       C  0.20760098  0.50526916  0.37653903    -0.54800
C1257       C  0.17381344  0.50482615  0.36736749     0.08400
C1258       C  0.14238919  0.97681197  0.38598736     0.19300
C1259       C  0.19017619  0.98463761  0.42784768    -0.55500
C1260       C  0.15249167  0.98005437  0.42132652     0.08500
C1261       C  0.17871522  0.93972241  0.38304003    -0.55000
C1262       C  0.14315293  0.93806019  0.37701996     0.09100
H1263       H  0.23516537  0.52340892  0.36431038     0.13600
H1264       H  0.11329918  0.97548370  0.38043758    -0.00700
H1265       H  0.20284106  0.99006584  0.45139736     0.13900
H1266       H  0.18141085  0.91411682  0.37563594     0.13700
C1267       C  0.20990952  0.70932314  0.05097198     0.85500
C1268       C  0.21020726  0.68781358  0.08179858    -0.54800
C1269       C  0.17729314  0.65336542  0.08965875     0.08400
C1270       C  0.14061062  0.64912331  0.06991685     0.19300
C1271       C  0.18955762  0.67504209  0.02622043    -0.55500
C1272       C  0.15122100  0.64522248  0.03571443     0.08500
C1273       C  0.17697826  0.72086810  0.05589366    -0.55000
C1274       C  0.14256504  0.69118760  0.06855971     0.09100
H1275       H  0.23666578  0.69966656  0.09637012     0.13600
H1276       H  0.11087558  0.62418716  0.07806651    -0.00700
H1277       H  0.20262845  0.67502417  0.00352326     0.13900
H1278       H  0.18231173  0.75147890  0.05328160     0.13700
C1279       C  0.22334437  0.98664366  0.05063167     0.85500
C1280       C  0.19727380  0.95914834  0.07724218    -0.54800
C1281       C  0.16097228  0.95441062  0.08111982     0.08400
C1282       C  0.15556282  0.98544978  0.06167861     0.19300
C1283       C  0.19516277  0.97357980  0.02131215    -0.55500
C1284       C  0.16018489  0.97521350  0.02668265     0.08500
C1285       C  0.22459014  0.52836042  0.05727521    -0.55000
C1286       C  0.19018415  0.52792788  0.06627274     0.09100
H1287       H  0.20871290  0.94580008  0.09331286     0.13600
H1288       H  0.12667981  0.98482982  0.06655937    -0.00700
H1289       H  0.20408902  0.96784989  0.99846945     0.13900
H1290       H  0.25402561  0.55554203  0.05950855     0.13700
C1291       C  0.48982027  0.75334497  0.05533737     0.85500
C1292       C  0.45960751  0.75055188  0.08011017    -0.54800
C1293       C  0.45801849  0.78354301  0.08731833     0.08400
C1294       C  0.49246881  0.82129743  0.07091240     0.19300
C1295       C  0.48305638  0.77454929  0.02697733    -0.55500
C1296       C  0.48677168  0.81144164  0.03492694     0.08500
C1297       C  0.03092170  0.78734646  0.06900631    -0.55000
C1298       C  0.03150683  0.82139636  0.07931494     0.09100
H1299       H  0.43992817  0.72280264  0.09165029     0.13600
H1300       H  0.49349376  0.84997367  0.07740628    -0.00700
H1301       H  0.47565510  0.76158737  0.00342531     0.13900
H1302       H  0.05699242  0.78330598  0.07172260     0.13700
C1303       C  0.25406334  0.74738516  0.04957821     0.85500
C1304       C  0.25365297  0.77361650  0.07711858    -0.54800
C1305       C  0.28619872  0.80882930  0.08278421     0.08400
C1306       C  0.32265715  0.81274108  0.06319437     0.19300
C1307       C  0.27210991  0.77660111  0.02114735    -0.55500
C1308       C  0.30975947  0.80973999  0.02790355     0.08500
C1309       C  0.28841459  0.73904720  0.05848050    -0.55000
C1310       C  0.32293065  0.77226160  0.06811202     0.09100
H1311       H  0.22798700  0.76341975  0.09220376     0.13600
H1312       H  0.35187874  0.84023844  0.06902367    -0.00700
H1313       H  0.25762262  0.77088671  0.99806989     0.13900
H1314       H  0.28430181  0.70884720  0.06042489     0.13700
C1315       C  0.48314741  0.70876658  0.05407392     0.85500
C1316       C  0.00292039  0.70730424  0.08475806    -0.54800
C1317       C  0.00668109  0.67514571  0.09029696     0.08400
C1318       C  0.47741079  0.63931149  0.06785015     0.19300
C1319       C  0.49866853  0.69227537  0.02730509    -0.55500
C1320       C  0.49182141  0.65369451  0.03334260     0.08500
C1321       C  0.43908465  0.67373799  0.05769783    -0.55000
C1322       C  0.43622556  0.63917818  0.06878079     0.09100
H1323       H  0.01023173  0.72928189  0.10326941     0.13600
H1324       H  0.47410850  0.60950236  0.07373964    -0.00700
H1325       H  0.50954249  0.70743199  0.00472929     0.13900
H1326       H  0.41263636  0.67730319  0.05582815     0.13700
C1327       C  0.48727917  0.71135525  0.40700387     0.85500
C1328       C  0.45867890  0.68636454  0.38013048    -0.54800
C1329       C  0.45644324  0.65176961  0.37223477     0.08400
C1330       C  0.48841157  0.64579796  0.39016900     0.19300
C1331       C  0.47664331  0.68128764  0.43442370    -0.55500
C1332       C  0.47957440  0.64784112  0.42615205     0.08500
C1333       C  0.02942916  0.71890001  0.39429357    -0.55000
C1334       C  0.02917641  0.68538563  0.38289219     0.09100
H1335       H  0.44072034  0.69607173  0.36762647     0.13600
H1336       H  0.48870859  0.61792882  0.38315285    -0.00700
H1337       H  0.47197135  0.68797297  0.45854160     0.13900
H1338       H  0.05615600  0.74871274  0.39260496     0.13700
C1339       C  0.48252807  0.75028900  0.40890866     0.85500
C1340       C  0.00428244  0.77302067  0.37858233    -0.54800
C1341       C  0.00794375  0.80866428  0.37341507     0.08400
C1342       C  0.47792222  0.81441031  0.39425302     0.19300
C1343       C  0.49801984  0.78276512  0.43578838    -0.55500
C1344       C  0.49202995  0.81515956  0.42910251     0.08500
C1345       C  0.43879881  0.74183834  0.40396317    -0.55000
C1346       C  0.43661294  0.77343666  0.39196995     0.09100
H1347       H  0.01062367  0.75830287  0.35941569     0.13600
H1348       H  0.47575019  0.84130967  0.38744164    -0.00700
H1349       H  0.50771215  0.77801114  0.45868807     0.13900
H1350       H  0.41221888  0.71182897  0.40527424     0.13700
C1351       C  0.26033948  0.75159966  0.41200999     0.85500
C1352       C  0.28045524  0.74993001  0.38092154    -0.54800
C1353       C  0.31339288  0.78302244  0.37130968     0.08400
C1354       C  0.32010551  0.81959282  0.39141807     0.19300
C1355       C  0.29582766  0.77124141  0.43589800    -0.55500
C1356       C  0.32638463  0.80914988  0.42575893     0.08500
C1357       C  0.24979158  0.78515845  0.40813793    -0.55000
C1358       C  0.27835971  0.81776854  0.39332438     0.09100
H1359       H  0.26964884  0.72245636  0.36772837     0.13600
H1360       H  0.34481735  0.84865635  0.38207166    -0.00700
H1361       H  0.29417951  0.75959572  0.45961156     0.13900
H1362       H  0.21962854  0.78066743  0.41205863     0.13700
C1363       C  0.26275220  0.98366982  0.05336564     0.85500
C1364       C  0.27936992  0.50606322  0.08198177    -0.54800
C1365       C  0.31363448  0.50772091  0.09073173     0.08400
C1366       C  0.32653860  0.98082328  0.07153631     0.19300
C1367       C  0.29624928  0.00078405  0.02839253    -0.55500
C1368       C  0.32895137  0.99666940  0.03657222     0.08500
C1369       C  0.25512998  0.94023923  0.05905966    -0.55000
C1370       C  0.28646715  0.93898884  0.07278426     0.09100
H1371       H  0.26786691  0.52211557  0.09511060     0.13600
H1372       H  0.35358979  0.97942763  0.07933851    -0.00700
H1373       H  0.29210788  0.00990073  0.00509804     0.13900
H1374       H  0.22547300  0.91326803  0.05704433     0.13700
C1375       C  0.25787911  0.98746001  0.40114901     0.85500
C1376       C  0.25372877  0.94778394  0.39170342    -0.54800
C1377       C  0.28638961  0.94773249  0.38140718     0.08400
C1378       C  0.32574723  0.98697937  0.39030161     0.19300
C1379       C  0.28398354  0.99597837  0.43151313    -0.55500
C1380       C  0.31984635  0.99534456  0.42634460     0.08500
C1381       C  0.28685592  0.53052793  0.39874220    -0.55000
C1382       C  0.32131385  0.53126893  0.38941825     0.09100
H1383       H  0.22955059  0.91931032  0.40080160     0.13600
H1384       H  0.35366263  0.98557093  0.38581560    -0.00700
H1385       H  0.27289847  0.99722707  0.45483055     0.13900
H1386       H  0.28365697  0.55717788  0.39714519     0.13700
C1387       C  0.44811272  0.86701531  0.48355767     0.85500
C1388       C  0.45189318  0.84416895  0.45447213    -0.54800
C1389       C  0.48587873  0.83998587  0.45428052     0.08400
C1390       C  0.01339347  0.86024054  0.48364284     0.19300
C1391       C  0.45149031  0.84481114  0.01212614    -0.55500
C1392       C  0.48394956  0.83908560  0.01175470     0.08500
C1393       C  0.48831137  0.90704489  0.48290163    -0.55000
C1394       C  0.02341715  0.90547461  0.48347630     0.09100
H1395       H  0.42885214  0.83137613  0.43609996     0.13600
H1396       H  0.04043104  0.85655294  0.48434059    -0.00700
H1397       H  0.42898680  0.83341227  0.03066683     0.13900
H1398       H  0.48861914  0.93487724  0.47881818     0.13700
C1399       C  0.02425001  0.59664013  0.47752518     0.85500
C1400       C  0.01936526  0.61830889  0.44881061    -0.54800
C1401       C  0.48616599  0.62334212  0.45036426     0.08400
C1402       C  0.46022799  0.60475306  0.48046748     0.19300
C1403       C  0.02349324  0.62019753  0.00629436    -0.55500
C1404       C  0.49186413  0.62568756  0.00819377     0.08500
C1405       C  0.48418737  0.55670169  0.47946208    -0.55000
C1406       C  0.44938457  0.55905640  0.47890596     0.09100
H1407       H  0.04077415  0.62928557  0.42944591     0.13600
H1408       H  0.43354600  0.60897814  0.48176806    -0.00700
H1409       H  0.04743487  0.63175628  0.02383534     0.13900
H1410       H  0.48373934  0.52860602  0.48239144     0.13700
C1411       C  0.10168430  0.55859968  0.48054512     0.85500
C1412       C  0.11276918  0.57839095  0.01356094    -0.54800
C1413       C  0.11936578  0.61650128  0.01435963     0.08400
C1414       C  0.10608077  0.62901170  0.48399489     0.19300
C1415       C  0.06179402  0.55707021  0.47268632    -0.55500
C1416       C  0.06266496  0.59316080  0.47647643     0.08500
C1417       C  0.13256513  0.59103164  0.45792658    -0.55000
C1418       C  0.13336626  0.62697731  0.45853700     0.09100
H1419       H  0.11911317  0.56522035  0.03393951     0.13600
H1420       H  0.10800031  0.65891837  0.48587012    -0.00700
H1421       H  0.03537047  0.52938694  0.46513172     0.13900
H1422       H  0.15274485  0.58653950  0.44277255     0.13700
C1423       C  0.10108608  0.51748233  0.47865098     0.85500
C1424       C  0.13377979  0.51662152  0.99944816    -0.54800
C1425       C  0.13662500  0.98182536  0.00148504     0.08400
C1426       C  0.10843340  0.95179637  0.47567831     0.19300
C1427       C  0.10796222  0.50671430  0.44515767    -0.55500
C1428       C  0.12259891  0.97809066  0.44500529     0.08500
C1429       C  0.06594789  0.98136724  0.48706261    -0.55000
C1430       C  0.06481573  0.94495759  0.48319551     0.09100
H1431       H  0.15546207  0.54184427  0.01365269     0.13600
H1432       H  0.10979874  0.92351689  0.47404506    -0.00700
H1433       H  0.11352141  0.52587883  0.42463606     0.13900
H1434       H  0.04092255  0.98417245  0.49588043     0.13700
C1435       C  0.36898517  0.90522241  0.47725351     0.85500
C1436       C  0.33848256  0.87569416  0.00121389    -0.54800
C1437       C  0.33734204  0.83998421  0.00424586     0.08400
C1438       C  0.36541750  0.83429544  0.48057324     0.19300
C1439       C  0.40936479  0.90704577  0.48588185    -0.55500
C1440       C  0.40907630  0.87076375  0.48472858     0.08500
C1441       C  0.35613653  0.88010059  0.44600460    -0.55000
C1442       C  0.35205273  0.84214931  0.44837834     0.09100
H1443       H  0.31574351  0.88018746  0.01210810     0.13600
H1444       H  0.36362408  0.80443562  0.48214588    -0.00700
H1445       H  0.43600392  0.93525231  0.49180189     0.13900
H1446       H  0.34759411  0.88963011  0.42466137     0.13700
C1447       C  0.36970003  0.94817787  0.47764396     0.85500
C1448       C  0.35702877  0.95841010  0.01028269    -0.54800
C1449       C  0.35395341  0.99239923  0.01111049     0.08400
C1450       C  0.36393309  0.51278298  0.48055004     0.19300
C1451       C  0.34259138  0.95234668  0.45276134    -0.55500
C1452       C  0.34241492  0.98795127  0.45259447     0.08500
C1453       C  0.41056047  0.98610485  0.47155021    -0.55000
C1454       C  0.40783306  0.51962064  0.47499522     0.09100
H1455       H  0.34921961  0.93930251  0.03103113     0.13600
H1456       H  0.36242406  0.54103598  0.48037641    -0.00700
H1457       H  0.32586206  0.92977125  0.43532811     0.13900
H1458       H  0.43586312  0.98309956  0.46401740     0.13700
C1459       C  0.12851218  0.68939645  0.86307769     0.85500
C1460       C  0.10733163  0.65579290  0.83965125    -0.54800
C1461       C  0.08256270  0.66084822  0.81978519     0.08400
C1462       C  0.07431609  0.69547056  0.82966849     0.19300
C1463       C  0.14446155  0.73058572  0.84369659    -0.55500
C1464       C  0.11642141  0.73417810  0.82562152     0.08500
C1465       C  0.09469580  0.68716695  0.88346237    -0.55000
C1466       C  0.06525141  0.68908991  0.86655928     0.09100
H1467       H  0.11867892  0.63523680  0.83459172     0.13600
H1468       H  0.05002890  0.69606389  0.81556374    -0.00700
H1469       H  0.17529728  0.75525760  0.84293491     0.13900
H1470       H  0.09423240  0.68442100  0.90912395     0.13700
C1471       C  0.04930545  0.68725723  0.60364335     0.85500
C1472       C  0.05240711  0.65776499  0.62668917    -0.54800
C1473       C  0.09166407  0.67120477  0.63634159     0.08400
C1474       C  0.12343995  0.71106806  0.62224728     0.19300
C1475       C  0.07129730  0.72851437  0.62295596    -0.55500
C1476       C  0.10981132  0.74116775  0.63259957     0.08500
C1477       C  0.07864262  0.69251368  0.57672241    -0.55000
C1478       C  0.11625261  0.70231952  0.58675432     0.09100
H1479       H  0.02625669  0.63285492  0.63795433     0.13600
H1480       H  0.15490963  0.72038202  0.62968277    -0.00700
H1481       H  0.05710015  0.74475990  0.63220338     0.13900
H1482       H  0.06965231  0.68569614  0.55218640     0.13700
C1483       C  0.12948832  0.91787421  0.59932751     0.85500
C1484       C  0.10713935  0.93045074  0.62135228    -0.54800
C1485       C  0.07990287  0.90000185  0.63979958     0.08400
C1486       C  0.07478565  0.85787419  0.63243209     0.19300
C1487       C  0.14567793  0.89525807  0.62104704    -0.55500
C1488       C  0.11767236  0.86392930  0.63842276     0.08500
C1489       C  0.09665520  0.88494868  0.57869439    -0.55000
C1490       C  0.06742777  0.85376043  0.59569366     0.09100
H1491       H  0.11734519  0.96222478  0.62581936     0.13600
H1492       H  0.05039691  0.83275435  0.64621122    -0.00700
H1493       H  0.17672235  0.90311643  0.62481083     0.13900
H1494       H  0.09568687  0.88682038  0.55296621     0.13700
C1495       C  0.27972586  0.84054812  0.60047464     0.85500
C1496       C  0.31371534  0.86608182  0.62314099    -0.54800
C1497       C  0.30792483  0.89352925  0.63983129     0.08400
C1498       C  0.27128800  0.89712207  0.62850684     0.19300
C1499       C  0.23973395  0.82518929  0.62122685    -0.55500
C1500       C  0.23429175  0.85401557  0.63610728     0.08500
C1501       C  0.27895957  0.87073574  0.57757134    -0.55000
C1502       C  0.27758917  0.90196725  0.59144207     0.09100
H1503       H  0.33531273  0.85682202  0.63011581     0.13600
H1504       H  0.26951248  0.92240928  0.63993243    -0.00700
H1505       H  0.21806033  0.79406216  0.62657116     0.13900
H1506       H  0.28051085  0.86826355  0.55228729     0.13700
C1507       C  0.15158749  0.81543590  0.70895076     0.85500
C1508       C  0.12862043  0.77086855  0.68903793    -0.54800
C1509       C  0.13165486  0.77606359  0.65630180     0.08400
C1510       C  0.15365147  0.82011917  0.64470547     0.19300
C1511       C  0.19612850  0.83947454  0.69186437    -0.55500
C1512       C  0.19694565  0.84118612  0.65859588     0.08500
C1513       C  0.13129280  0.83973970  0.69269662    -0.55000
C1514       C  0.13117519  0.84022746  0.65969085     0.09100
H1515       H  0.13810464  0.78806487  0.70763851     0.13600
H1516       H  0.15399961  0.82170057  0.61831793    -0.00700
H1517       H  0.22295176  0.84977273  0.70607384     0.13900
H1518       H  0.11892892  0.85503536  0.70617327     0.13700
C1519       C  0.27870652  0.91008649  0.86543214     0.85500
C1520       C  0.31145798  0.91383614  0.84285325    -0.54800
C1521       C  0.30129370  0.87785527  0.82852008     0.08400
C1522       C  0.26126466  0.84192255  0.83904913     0.19300
C1523       C  0.23943960  0.89083029  0.84432166    -0.55500
C1524       C  0.22956517  0.85484886  0.83030160     0.08500
C1525       C  0.27242575  0.87774342  0.88912003    -0.55000
C1526       C  0.26670234  0.84359905  0.87543938     0.09100
H1527       H  0.33547155  0.94277682  0.83427023     0.13600
H1528       H  0.25495202  0.81268770  0.82836557    -0.00700
H1529       H  0.22220600  0.90574332  0.83939868     0.13900
H1530       H  0.27510044  0.88191938  0.91457623     0.13700
C1531       C  0.04670176  0.83967444  0.85622390     0.85500
C1532       C  0.03858744  0.86093365  0.82931177    -0.54800
C1533       C  0.07330156  0.88848043  0.81487654     0.08400
C1534       C  0.11249118  0.89253461  0.82714722     0.19300
C1535       C  0.07292696  0.82257784  0.84034065    -0.55500
C1536       C  0.10641287  0.84990168  0.82431796     0.08500
C1537       C  0.07680592  0.87397386  0.87797917    -0.55000
C1538       C  0.11070570  0.90175629  0.86235176     0.09100
H1539       H  0.00858248  0.85359808  0.82132580     0.13600
H1540       H  0.14005788  0.91575781  0.81469157    -0.00700
H1541       H  0.06619505  0.79158159  0.83989145     0.13900
H1542       H  0.07162706  0.87654414  0.90303391     0.13700
C1543       C  0.15458582  0.81741987  0.75370168     0.85500
C1544       C  0.19945362  0.83812405  0.77337406    -0.54800
C1545       C  0.19464026  0.83489427  0.80622161     0.08400
C1546       C  0.15075218  0.81409459  0.81802000     0.19300
C1547       C  0.12856724  0.77293495  0.77021301    -0.55500
C1548       C  0.12906579  0.77149601  0.80353734     0.08500
C1549       C  0.13189313  0.83849138  0.77074961    -0.55000
C1550       C  0.13084508  0.83704441  0.80366021     0.09100
H1551       H  0.18211713  0.82961030  0.75471924     0.13600
H1552       H  0.14919108  0.81326793  0.84441410    -0.00700
H1553       H  0.11265936  0.74684362  0.75522473     0.13900
H1554       H  0.11689807  0.85148946  0.75776496     0.13700
C1555       C  0.41722681  0.62084736  0.85716697     0.85500
C1556       C  0.42168931  0.59118722  0.83668874    -0.54800
C1557       C  0.38666592  0.56406408  0.82180047     0.08400
C1558       C  0.34899816  0.56632279  0.83208768     0.19300
C1559       C  0.39562585  0.63767758  0.83499092    -0.55500
C1560       C  0.35941287  0.60970342  0.82240616     0.08500
C1561       C  0.38604025  0.59470156  0.88189983    -0.55000
C1562       C  0.35099930  0.56522145  0.86916469     0.09100
H1563       H  0.45144846  0.59658716  0.82975060     0.13600
H1564       H  0.32022124  0.54189057  0.82187076    -0.00700
H1565       H  0.40848158  0.66887711  0.82763520     0.13900
H1566       H  0.39232392  0.59713530  0.90726002     0.13700
C1567       C  0.18527229  0.61933863  0.60290614     0.85500
C1568       C  0.15329344  0.59021123  0.62596862    -0.54800
C1569       C  0.16163642  0.56218200  0.63870008     0.08400
C1570       C  0.20031650  0.56392060  0.62471843     0.19300
C1571       C  0.22644949  0.63551096  0.62192493    -0.55500
C1572       C  0.23554522  0.60771296  0.63362194     0.08500
C1573       C  0.18701315  0.59160499  0.57696272    -0.55000
C1574       C  0.19276084  0.56122236  0.58802357     0.09100
H1575       H  0.13063805  0.59639581  0.63577948     0.13600
H1576       H  0.20553954  0.53949057  0.63345278    -0.00700
H1577       H  0.24613371  0.66655537  0.62903317     0.13900
H1578       H  0.18352575  0.59542805  0.55192766     0.13700
C1579       C  0.41784597  0.77662366  0.60170001     0.85500
C1580       C  0.42123616  0.81026547  0.62279021    -0.54800
C1581       C  0.38506581  0.80163613  0.63591769     0.08400
C1582       C  0.34826771  0.76211061  0.62406098     0.19300
C1583       C  0.39510064  0.73767703  0.62302535    -0.55500
C1584       C  0.35799349  0.72849279  0.63373756     0.08500
C1585       C  0.38732163  0.77179599  0.57594641    -0.55000
C1586       C  0.35200045  0.76675650  0.58767858     0.09100
H1587       H  0.45019972  0.83336074  0.63234718     0.13600
H1588       H  0.31894594  0.75728294  0.63337810    -0.00700
H1589       H  0.40832692  0.72034333  0.63210655     0.13900
H1590       H  0.39347642  0.77351372  0.55073262     0.13700
C1591       C  0.31802444  0.64990975  0.70677613     0.85500
C1592       C  0.33670895  0.69534412  0.68854479    -0.54800
C1593       C  0.33463297  0.69206992  0.65572409     0.08400
C1594       C  0.31725586  0.64871479  0.64239436     0.19300
C1595       C  0.27480400  0.62147618  0.68857645    -0.55500
C1596       C  0.27403611  0.62233311  0.65546941     0.08500
C1597       C  0.34305145  0.63125495  0.68978108    -0.55000
C1598       C  0.34319174  0.63188253  0.65672535     0.09100
H1599       H  0.32748587  0.67701549  0.70632883     0.13600
H1600       H  0.31753208  0.64845299  0.61597909    -0.00700
H1601       H  0.24769895  0.60596202  0.70182369     0.13900
H1602       H  0.35700320  0.61715270  0.70281434     0.13700
C1603       C  0.18229426  0.54635931  0.85414995     0.85500
C1604       C  0.15167341  0.54783401  0.83122326    -0.54800
C1605       C  0.16348938  0.58645910  0.82061306     0.08400
C1606       C  0.20346435  0.61975510  0.83604598     0.19300
C1607       C  0.22322855  0.56942195  0.83509583    -0.55500
C1608       C  0.23591059  0.60790168  0.82610047     0.08500
C1609       C  0.18608866  0.57466465  0.88134844    -0.55000
C1610       C  0.19488600  0.61208531  0.87208198     0.09100
H1611       H  0.12804059  0.52073761  0.81978161     0.13600
H1612       H  0.21162791  0.65100814  0.82920020    -0.00700
H1613       H  0.23852828  0.55474717  0.82465992     0.13900
H1614       H  0.18066081  0.56515117  0.90591436     0.13700
C1615       C  0.34584168  0.77542460  0.85758393     0.85500
C1616       C  0.37688149  0.80959396  0.83767195    -0.54800
C1617       C  0.40336480  0.80057946  0.82277162     0.08400
C1618       C  0.40035380  0.76071291  0.83423730     0.19300
C1619       C  0.32897094  0.73700269  0.83549778    -0.55500
C1620       C  0.35645408  0.72775120  0.82375199     0.08500
C1621       C  0.37130208  0.77018221  0.88304693    -0.55000
C1622       C  0.40152060  0.76530367  0.87126100     0.09100
H1623       H  0.37228808  0.83441834  0.83077407     0.13600
H1624       H  0.42463477  0.75569146  0.82477386    -0.00700
H1625       H  0.29788005  0.71953409  0.82740398     0.13900
H1626       H  0.36881109  0.77462842  0.90821979     0.13700
C1627       C  0.31451883  0.64602157  0.75148024     0.85500
C1628       C  0.26948710  0.62612545  0.77069480    -0.54800
C1629       C  0.27299276  0.62924417  0.80348778     0.08400
C1630       C  0.31701599  0.64749532  0.81582655     0.19300
C1631       C  0.34132360  0.69001506  0.76874466    -0.55500
C1632       C  0.34175144  0.69034518  0.80185934     0.08500
C1633       C  0.33549990  0.62294254  0.76826303    -0.55000
C1634       C  0.33525410  0.62281252  0.80131093     0.09100
H1635       H  0.28715863  0.63428555  0.75231790     0.13600
H1636       H  0.31817280  0.64787892  0.84222940    -0.00700
H1637       H  0.35564841  0.71748044  0.75498741     0.13900
H1638       H  0.34995441  0.60971993  0.75485593     0.13700
C1639       C  0.34483874  0.54804889  0.60434519     0.85500
C1640       C  0.37438053  0.54530847  0.62642597    -0.54800
C1641       C  0.40245046  0.58190373  0.63872075     0.08400
C1642       C  0.39996874  0.61822343  0.62629357     0.19300
C1643       C  0.32830250  0.57142068  0.62430750    -0.55500
C1644       C  0.35648366  0.60816717  0.63559174     0.08500
C1645       C  0.37131342  0.57714979  0.57838160    -0.55000
C1646       C  0.40125066  0.61284813  0.58970043     0.09100
H1647       H  0.36954824  0.51649809  0.63528130     0.13600
H1648       H  0.42438706  0.64777230  0.63540059    -0.00700
H1649       H  0.29730931  0.55923233  0.63200103     0.13900
H1650       H  0.36935597  0.56903842  0.55346417     0.13700
O1651       O  0.28982611  0.89284279  0.69324905    -0.58800
C1652       C  0.30951678  0.87803284  0.79585890     0.73800
O1653       O  0.33578003  0.82915867  0.73422811    -0.60000
C1654       C  0.31511911  0.89331566  0.67347661     0.73800
C1655       C  0.37183624  0.94678987  0.74004508     0.76100
Cd1656     Cd  0.31717696  0.87345268  0.73485038     1.29100
O1657       O  0.28307741  0.87552569  0.77604820    -0.58800
O1658       O  0.33475833  0.93699434  0.74010666    -0.57700
C1659       C  0.30167086  0.79736408  0.73416757     0.76100
O1660       O  0.38315359  0.92056838  0.74097176    -0.60000
O1661       O  0.34128736  0.87855410  0.78657764    -0.58500
O1662       O  0.34284589  0.88696045  0.68340053    -0.58500
O1663       O  0.26973555  0.79996882  0.73281135    -0.57600
O1664       O  0.39698508  0.78544422  0.68592695    -0.58800
C1665       C  0.40608309  0.80805118  0.78900304     0.73800
O1666       O  0.42744731  0.87622159  0.72933801    -0.60000
C1667       C  0.38609729  0.80656634  0.66933591     0.73800
C1668       C  0.30248536  0.76051101  0.73599835     0.76100
Cd1669     Cd  0.38213035  0.80384676  0.73028008     1.37500
O1670       O  0.41073546  0.78440864  0.76995928    -0.58800
O1671       O  0.31350664  0.75152963  0.71060184    -0.57700
C1672       C  0.45601330  0.86805411  0.72560923     0.76100
O1673       O  0.31917322  0.75809113  0.76107418    -0.60000
O1674       O  0.39565708  0.83287023  0.77827492    -0.58500
O1675       O  0.37341876  0.82842611  0.68226414    -0.58500
O1676       O  0.44762448  0.83136488  0.72215845    -0.57600
O1677       O  0.08154635  0.89350219  0.69456149    -0.58800
C1678       C  0.07416902  0.90660021  0.78587373     0.73800
O1679       O  0.13295839  0.00357168  0.74392095    -0.60000
C1680       C  0.07810443  0.91265217  0.67140718     0.73800
C1681       C  0.99989479  0.89696576  0.72779191     0.76100
Cd1682     Cd  0.08192550  0.93893235  0.73032505     1.37500
O1683       O  0.08743134  0.89647894  0.76210860    -0.58800
O1684       O  0.02280669  0.88204978  0.72946943    -0.57700
C1685       C  0.16252379  0.99709676  0.74378610     0.76100
O1686       O  0.01555141  0.93551288  0.72796065    -0.60000
O1687       O  0.06400489  0.93350387  0.78373436    -0.58500
O1688       O  0.07806936  0.94560340  0.67634537    -0.58500
O1689       O  0.15559763  0.96272698  0.73435338    -0.57600
O1690       O  0.10825929  0.68866231  0.76999207    -0.58800
C1691       C  0.10135906  0.66353279  0.66722488     0.73800
O1692       O  0.15668772  0.63435590  0.72142491    -0.60000
C1693       C  0.09384920  0.65782663  0.78764900     0.73800
C1694       C  0.04055639  0.62095198  0.72836234     0.76100
Cd1695     Cd  0.11637717  0.65741699  0.72749095     1.37500
O1696       O  0.11874041  0.69344312  0.68621483    -0.58800
O1697       O  0.05933513  0.65941896  0.72568396    -0.57700
C1698       C  0.18921456  0.66812955  0.71996535     0.76100
O1699       O  0.05877619  0.60039773  0.72769645    -0.60000
O1700       O  0.09343792  0.62857228  0.67598052    -0.58500
O1701       O  0.09526404  0.62688818  0.77810543    -0.58500
O1702       O  0.18911642  0.70067038  0.72621491    -0.57600
O1703       O  0.18680858  0.62371390  0.77436459    -0.58800
C1704       C  0.15470527  0.55406991  0.67262753     0.73800
O1705       O  0.20160865  0.55079374  0.77062982    -0.60000
C1706       C  0.15828962  0.59280213  0.78705317     0.73800
C1707       C  0.22422088  0.66649457  0.71114387     0.76100
Cd1708     Cd  0.19024593  0.58862166  0.72945972     1.37500
O1709       O  0.17733808  0.54392230  0.68658045    -0.58800
O1710       O  0.24368839  0.66293281  0.73366577    -0.57700
C1711       C  0.19884911  0.52820474  0.74805705     0.76100
O1712       O  0.21723983  0.64337449  0.68796872    -0.60000
O1713       O  0.13623631  0.56752609  0.68944962    -0.58500
O1714       O  0.13378029  0.56465110  0.76876320    -0.58500
O1715       O  0.22262042  0.54480082  0.72511475    -0.57600
O1716       O  0.41333885  0.60187987  0.69218399    -0.58800
C1717       C  0.39347894  0.55724787  0.78946225     0.73800
O1718       O  0.42331990  0.50316090  0.72809787    -0.60000
C1719       C  0.41644533  0.58111904  0.66990244     0.73800
C1720       C  0.50012406  0.60239650  0.73250995     0.76100
Cd1721     Cd  0.42298752  0.56220670  0.72997985     1.37500
O1722       O  0.37840475  0.56697941  0.76661888    -0.58800
O1723       O  0.48147720  0.62180108  0.73654624    -0.57700
C1724       C  0.39997056  0.98722678  0.73610124     0.76100
O1725       O  0.48155613  0.56429532  0.73125596    -0.60000
O1726       O  0.42046094  0.54829918  0.78364203    -0.58500
O1727       O  0.42625449  0.55492952  0.67623991    -0.58500
O1728       O  0.36659477  0.50464695  0.72123879    -0.57600
C1729       C  0.22092299  0.71006136  0.91313714     0.85500
C1730       C  0.19602173  0.71257453  0.88518334    -0.54800
C1731       C  0.15918646  0.68229541  0.88104527     0.08400
C1732       C  0.15296451  0.64484777  0.89959604     0.19300
C1733       C  0.19145683  0.69478833  0.94134068    -0.55500
C1734       C  0.15673443  0.65850566  0.93466183     0.08500
C1735       C  0.22596180  0.67347407  0.90470909    -0.55000
C1736       C  0.19161768  0.64098229  0.89407380     0.09100
H1737       H  0.20817429  0.73743217  0.86889471     0.13600
H1738       H  0.12401880  0.61695346  0.89388856    -0.00700
H1739       H  0.19920096  0.70910437  0.96442258     0.13900
H1740       H  0.25515229  0.67509182  0.90301975     0.13700
C1741       C  0.21216058  0.98019375  0.89868576     0.85500
C1742       C  0.20767687  0.50484837  0.87622939    -0.54800
C1743       C  0.17404608  0.50492033  0.86746370     0.08400
C1744       C  0.14246861  0.97670439  0.88631291     0.19300
C1745       C  0.19014995  0.98445349  0.92824770    -0.55500
C1746       C  0.15249070  0.97985344  0.92165875     0.08500
C1747       C  0.17892813  0.93976395  0.88332579    -0.55000
C1748       C  0.14333931  0.93802798  0.87729448     0.09100
H1749       H  0.23494791  0.52197904  0.86333991     0.13600
H1750       H  0.11336851  0.97534185  0.88073917    -0.00700
H1751       H  0.20273907  0.98981368  0.95182566     0.13900
H1752       H  0.18171614  0.91422816  0.87588272     0.13700
C1753       C  0.20962752  0.70904648  0.55128870     0.85500
C1754       C  0.20988556  0.68746891  0.58209865    -0.54800
C1755       C  0.17688415  0.65300275  0.58996855     0.08400
C1756       C  0.14029367  0.64875439  0.57011210     0.19300
C1757       C  0.18941738  0.67488125  0.52649867    -0.55500
C1758       C  0.15110194  0.64500642  0.53588404     0.08500
C1759       C  0.17666580  0.72055012  0.55626116    -0.55000
C1760       C  0.14225537  0.69082094  0.56891024     0.09100
H1761       H  0.23641613  0.69928330  0.59657373     0.13600
H1762       H  0.11053137  0.62376194  0.57815446    -0.00700
H1763       H  0.20257777  0.67498422  0.50381547     0.13900
H1764       H  0.18196430  0.75115168  0.55368239     0.13700
C1765       C  0.22316962  0.98625263  0.55036371     0.85500
C1766       C  0.19669047  0.95809142  0.57648430    -0.54800
C1767       C  0.16059138  0.95385112  0.58067778     0.08400
C1768       C  0.15541015  0.98515600  0.56145416     0.19300
C1769       C  0.19531283  0.97385314  0.52092778    -0.55500
C1770       C  0.16031326  0.97539977  0.52634921     0.08500
C1771       C  0.22436147  0.52797683  0.55798922    -0.55000
C1772       C  0.18988921  0.52747334  0.56691475     0.09100
H1773       H  0.20749472  0.94342646  0.59171543     0.13600
H1774       H  0.12653512  0.98456978  0.56629328    -0.00700
H1775       H  0.20437199  0.96840244  0.49804482     0.13900
H1776       H  0.25379701  0.55507307  0.56060312     0.13700
C1777       C  0.48961560  0.75346495  0.55600640     0.85500
C1778       C  0.45943295  0.75081524  0.58074392    -0.54800
C1779       C  0.45794069  0.78389362  0.58791461     0.08400
C1780       C  0.49244361  0.82156182  0.57136378     0.19300
C1781       C  0.48300000  0.77464523  0.52755813    -0.55500
C1782       C  0.48676111  0.81158027  0.53536942     0.08500
C1783       C  0.03042736  0.78699038  0.56913473    -0.55000
C1784       C  0.03115755  0.82106184  0.57951033     0.09100
H1785       H  0.43968330  0.72308201  0.59228639     0.13600
H1786       H  0.49356496  0.85030899  0.57776547    -0.00700
H1787       H  0.47576258  0.76167974  0.50399721     0.13900
H1788       H  0.05644391  0.78285125  0.57178812     0.13700
C1789       C  0.25379996  0.74706066  0.54976575     0.85500
C1790       C  0.25354402  0.77337023  0.57728523    -0.54800
C1791       C  0.28620235  0.80849407  0.58298491     0.08400
C1792       C  0.32252911  0.81233939  0.56321113     0.19300
C1793       C  0.27184378  0.77621012  0.52126340    -0.55500
C1794       C  0.30955452  0.80933132  0.52793472     0.08500
C1795       C  0.28809260  0.73862401  0.55858350    -0.55000
C1796       C  0.32271430  0.77182679  0.56805282     0.09100
H1797       H  0.22782453  0.76338588  0.59227845     0.13600
H1798       H  0.35182032  0.83977814  0.56899346    -0.00700
H1799       H  0.25736974  0.77040890  0.49817100     0.13900
H1800       H  0.28389531  0.70839674  0.56059931     0.13700
C1801       C  0.48293564  0.70889953  0.55469952     0.85500
C1802       C  0.00241030  0.70724453  0.58486758    -0.54800
C1803       C  0.00647464  0.67529168  0.59034781     0.08400
C1804       C  0.47755991  0.63954705  0.56823978     0.19300
C1805       C  0.49828087  0.69241511  0.52773564    -0.55500
C1806       C  0.49164892  0.65387607  0.53365922     0.08500
C1807       C  0.43896498  0.67382465  0.55853563    -0.55000
C1808       C  0.43627217  0.63925726  0.56942516     0.09100
H1809       H  0.00873671  0.72864005  0.60371937     0.13600
H1810       H  0.47443863  0.60981236  0.57412332    -0.00700
H1811       H  0.50890028  0.70757402  0.50512980     0.13900
H1812       H  0.41243689  0.67727066  0.55680125     0.13700
C1813       C  0.48738777  0.71175508  0.90718235     0.85500
C1814       C  0.45875571  0.68669679  0.88036004    -0.54800
C1815       C  0.45670603  0.65221454  0.87233727     0.08400
C1816       C  0.48869853  0.64630024  0.89021670     0.19300
C1817       C  0.47682032  0.68160641  0.93456319    -0.55500
C1818       C  0.47984119  0.64821360  0.92618538     0.08500
C1819       C  0.02916706  0.71912559  0.89482818    -0.55000
C1820       C  0.02910522  0.68576182  0.88339299     0.09100
H1821       H  0.44056213  0.69622214  0.86800390     0.13600
H1822       H  0.48909241  0.61850007  0.88313410    -0.00700
H1823       H  0.47200321  0.68813489  0.95868487     0.13900
H1824       H  0.05589528  0.74897247  0.89338236     0.13700
C1825       C  0.48260759  0.75071650  0.90895806     0.85500
C1826       C  0.00421709  0.77317961  0.87847867    -0.54800
C1827       C  0.00792651  0.80883211  0.87321500     0.08400
C1828       C  0.47803775  0.81482942  0.89408865     0.19300
C1829       C  0.49821549  0.78334505  0.93570210    -0.55500
C1830       C  0.49217373  0.81568487  0.92893776     0.08500
C1831       C  0.43887694  0.74230968  0.90402392    -0.55000
C1832       C  0.43674282  0.77389073  0.89189872     0.09100
H1833       H  0.01119623  0.75861778  0.85961653     0.13600
H1834       H  0.47588219  0.84172017  0.88721572    -0.00700
H1835       H  0.50811065  0.77877741  0.95857116     0.13900
H1836       H  0.41226139  0.71233808  0.90544814     0.13700
C1837       C  0.26052457  0.75232321  0.91212012     0.85500
C1838       C  0.28071490  0.75042810  0.88115298    -0.54800
C1839       C  0.31367923  0.78349134  0.87150141     0.08400
C1840       C  0.32054760  0.82016776  0.89146305     0.19300
C1841       C  0.29593788  0.77200828  0.93605667    -0.55500
C1842       C  0.32660263  0.80982184  0.92588202     0.08500
C1843       C  0.25013237  0.78596135  0.90786941    -0.55000
C1844       C  0.27891333  0.81844269  0.89302837     0.09100
H1845       H  0.26991043  0.72288999  0.86804596     0.13600
H1846       H  0.34536700  0.84917037  0.88211944    -0.00700
H1847       H  0.29426768  0.76036638  0.95976675     0.13900
H1848       H  0.22000325  0.78163628  0.91159686     0.13700
C1849       C  0.26257122  0.98321462  0.55299217     0.85500
C1850       C  0.27879415  0.50530546  0.58237170    -0.54800
C1851       C  0.31327082  0.50743374  0.59094905     0.08400
C1852       C  0.32624094  0.98009741  0.57101736     0.19300
C1853       C  0.29625519  0.00084155  0.52817156    -0.55500
C1854       C  0.32886952  0.99649919  0.53621187     0.08500
C1855       C  0.25497210  0.93968661  0.55800391    -0.55000
C1856       C  0.28615482  0.93821251  0.57176875     0.09100
H1857       H  0.26656272  0.52026529  0.59605346     0.13600
H1858       H  0.35324567  0.97856762  0.57874401    -0.00700
H1859       H  0.29212408  0.01009992  0.50491322     0.13900
H1860       H  0.22536935  0.91271916  0.55561235     0.13700
C1861       C  0.25796469  0.98762649  0.90169025     0.85500
C1862       C  0.25389494  0.94798271  0.89231879    -0.54800
C1863       C  0.28659362  0.94810407  0.88201054     0.08400
C1864       C  0.32591169  0.98733179  0.89095323     0.19300
C1865       C  0.28401705  0.99623226  0.93208274    -0.55500
C1866       C  0.31994557  0.99570967  0.92696576     0.08500
C1867       C  0.28680044  0.53055634  0.89839792    -0.55000
C1868       C  0.32142412  0.53158960  0.88919123     0.09100
H1869       H  0.22971853  0.91944439  0.90133149     0.13600
H1870       H  0.35385531  0.98596169  0.88650111    -0.00700
H1871       H  0.27283219  0.99744187  0.95535464     0.13900
H1872       H  0.28327011  0.55699734  0.89659106     0.13700
C1873       C  0.44821797  0.86734582  0.98360922     0.85500
C1874       C  0.45200044  0.84468761  0.95436910    -0.54800
C1875       C  0.48597445  0.84046813  0.95410568     0.08400
C1876       C  0.01329392  0.86019760  0.98339837     0.19300
C1877       C  0.45146385  0.84473295  0.51221902    -0.55500
C1878       C  0.48398766  0.83911067  0.51200147     0.08500
C1879       C  0.48842823  0.90732357  0.98311939    -0.55000
C1880       C  0.02339482  0.90545622  0.98344643     0.09100
H1881       H  0.42897048  0.83201381  0.93598267     0.13600
H1882       H  0.04029582  0.85644447  0.98397017    -0.00700
H1883       H  0.42892434  0.83336160  0.53074074     0.13900
H1884       H  0.48879737  0.93521201  0.97920218     0.13700
C1885       C  0.02409468  0.59673092  0.97729114     0.85500
C1886       C  0.01908263  0.61844359  0.94863670    -0.54800
C1887       C  0.48633229  0.62348594  0.95022428     0.08400
C1888       C  0.46032058  0.60470911  0.98023637     0.19300
C1889       C  0.02361596  0.62017123  0.50648553    -0.55500
C1890       C  0.49183502  0.62593051  0.50840740     0.08500
C1891       C  0.48424066  0.55661583  0.97900779    -0.55000
C1892       C  0.44946160  0.55903678  0.97851669     0.09100
H1893       H  0.04041192  0.62943750  0.92921620     0.13600
H1894       H  0.43365895  0.60896311  0.98158162    -0.00700
H1895       H  0.04749353  0.63163903  0.52406792     0.13900
H1896       H  0.48376238  0.52847000  0.98168501     0.13700
C1897       C  0.10174570  0.55889606  0.98055766     0.85500
C1898       C  0.11298001  0.57819783  0.51351186    -0.54800
C1899       C  0.11956695  0.61629812  0.51432713     0.08400
C1900       C  0.10596211  0.62923437  0.98399653     0.19300
C1901       C  0.06185161  0.55731599  0.97249797    -0.55500
C1902       C  0.06261033  0.59335678  0.97625815     0.08500
C1903       C  0.13277964  0.59147390  0.95809232    -0.55000
C1904       C  0.13350345  0.62739801  0.95871556     0.09100
H1905       H  0.11927397  0.56498866  0.53388718     0.13600
H1906       H  0.10779898  0.65910224  0.98588767    -0.00700
H1907       H  0.03547877  0.52962833  0.96487894     0.13900
H1908       H  0.15313588  0.58710828  0.94305988     0.13700
C1909       C  0.10126110  0.51780322  0.97867197     0.85500
C1910       C  0.13384790  0.51651016  0.49922782    -0.54800
C1911       C  0.13674077  0.98197596  0.50118817     0.08400
C1912       C  0.10839536  0.95169027  0.97592156     0.19300
C1913       C  0.10851208  0.50727205  0.94522081    -0.55500
C1914       C  0.12264887  0.97799318  0.94528038     0.08500
C1915       C  0.06592043  0.98131687  0.98713539    -0.55000
C1916       C  0.06478390  0.94489745  0.98329115     0.09100
H1917       H  0.15567494  0.54182662  0.51330236     0.13600
H1918       H  0.10973771  0.92339631  0.97430769    -0.00700
H1919       H  0.11420454  0.52652046  0.92473772     0.13900
H1920       H  0.04091031  0.98415876  0.99592283     0.13700
C1921       C  0.36927886  0.90576130  0.97751202     0.85500
C1922       C  0.33828152  0.87521516  0.50106704    -0.54800
C1923       C  0.33716249  0.83951670  0.50419374     0.08400
C1924       C  0.36562270  0.83481096  0.98064961     0.19300
C1925       C  0.40961079  0.90751500  0.98618184    -0.55500
C1926       C  0.40926602  0.87120590  0.98490854     0.08500
C1927       C  0.35651996  0.88079096  0.94617049    -0.55000
C1928       C  0.35237167  0.84280469  0.94847211     0.09100
H1929       H  0.31553977  0.87970071  0.51195903     0.13600
H1930       H  0.36378939  0.80492928  0.98216730    -0.00700
H1931       H  0.43625232  0.93570537  0.99214762     0.13900
H1932       H  0.34804477  0.89042290  0.92483889     0.13700
C1933       C  0.37000754  0.94867728  0.97805070     0.85500
C1934       C  0.35649022  0.95786339  0.50977917    -0.54800
C1935       C  0.35345822  0.99187419  0.51057401     0.08400
C1936       C  0.36406653  0.51306462  0.98032752     0.19300
C1937       C  0.34267062  0.95274327  0.95335714    -0.55500
C1938       C  0.34253523  0.98835838  0.95319845     0.08500
C1939       C  0.41081320  0.98655538  0.97177538    -0.55000
C1940       C  0.40785637  0.51972996  0.97459919     0.09100
H1941       H  0.34874414  0.93883952  0.53056544     0.13600
H1942       H  0.36266730  0.54137687  0.98014820    -0.00700
H1943       H  0.32568582  0.93003092  0.93607873     0.13900
H1944       H  0.43606725  0.98351969  0.96413255     0.13700
C1945       C  0.62362958  0.18852714  0.36090355     0.85500
C1946       C  0.59949118  0.15320170  0.33916218    -0.54800
C1947       C  0.57298715  0.15736244  0.31976726     0.08400
C1948       C  0.56857299  0.19470730  0.32815629     0.19300
C1949       C  0.63994731  0.22689975  0.33852567    -0.55500
C1950       C  0.61171931  0.23121150  0.32179445     0.08500
C1951       C  0.59209217  0.19032421  0.38169255    -0.55000
C1952       C  0.56209214  0.19174793  0.36533729     0.09100
H1953       H  0.60880969  0.13087751  0.33537607     0.13600
H1954       H  0.54414662  0.19595930  0.31478023    -0.00700
H1955       H  0.67136477  0.24859026  0.33394406     0.13900
H1956       H  0.59317538  0.18986599  0.40743276     0.13700
C1957       C  0.54612149  0.18864553  0.10487737     0.85500
C1958       C  0.53972016  0.16323888  0.13413342    -0.54800
C1959       C  0.57503004  0.17251544  0.14857834     0.08400
C1960       C  0.61359979  0.20376262  0.13198478     0.19300
C1961       C  0.57388951  0.23365048  0.11689360    -0.55500
C1962       C  0.60845823  0.24100703  0.13202035     0.08500
C1963       C  0.57398263  0.18181871  0.08323645    -0.55000
C1964       C  0.60843931  0.18793493  0.09736155     0.09100
H1965       H  0.51023181  0.14246011  0.14393651     0.13600
H1966       H  0.64222059  0.20937626  0.14342891    -0.00700
H1967       H  0.56620594  0.25728409  0.11688243     0.13900
H1968       H  0.56870153  0.17628158  0.05832202     0.13700
C1969       C  0.62540048  0.41808292  0.09866892     0.85500
C1970       C  0.60212517  0.42946708  0.12075849    -0.54800
C1971       C  0.57504002  0.39838187  0.13884058     0.08400
C1972       C  0.57093560  0.35680630  0.13097706     0.19300
C1973       C  0.64181229  0.39518295  0.12001712    -0.55500
C1974       C  0.61399115  0.36337763  0.13716099     0.08500
C1975       C  0.59318974  0.38526389  0.07755992    -0.55000
C1976       C  0.56414591  0.35342383  0.09418229     0.09100
H1977       H  0.61155552  0.46100953  0.12549099     0.13600
H1978       H  0.54657071  0.33114610  0.14434578    -0.00700
H1979       H  0.67279164  0.40256169  0.12314120     0.13900
H1980       H  0.59242810  0.38764413  0.05186340     0.13700
C1981       C  0.77562425  0.33880073  0.09945669     0.85500
C1982       C  0.80957135  0.36230900  0.12223171    -0.54800
C1983       C  0.80467208  0.38910061  0.14009474     0.08400
C1984       C  0.76903458  0.39500400  0.12961134     0.19300
C1985       C  0.73495314  0.32364630  0.11937653    -0.55500
C1986       C  0.73100854  0.35249793  0.13578833     0.08500
C1987       C  0.77591331  0.37034942  0.07751987    -0.55000
C1988       C  0.77495501  0.40124602  0.09258419     0.09100
H1989       H  0.83068592  0.35200329  0.12824677     0.13600
H1990       H  0.76822340  0.42018783  0.14213666    -0.00700
H1991       H  0.71048684  0.29280802  0.12129509     0.13900
H1992       H  0.77569699  0.36807521  0.05217601     0.13700
C1993       C  0.64794888  0.31426804  0.20753730     0.85500
C1994       C  0.62590301  0.26986575  0.18753931    -0.54800
C1995       C  0.62904852  0.27575534  0.15511982     0.08400
C1996       C  0.65053101  0.31971899  0.14348449     0.19300
C1997       C  0.69247611  0.33883619  0.19091144    -0.55500
C1998       C  0.69360145  0.34051549  0.15770296     0.08500
C1999       C  0.62749583  0.33858123  0.19130689    -0.55000
C2000       C  0.62768361  0.33953278  0.15831895     0.09100
H2001       H  0.63445547  0.28699050  0.20595437     0.13600
H2002       H  0.65114016  0.32140898  0.11709836    -0.00700
H2003       H  0.71889865  0.34948456  0.20552016     0.13900
H2004       H  0.61501214  0.35376836  0.20475058     0.13700
C2005       C  0.77432756  0.41680352  0.36079681     0.85500
C2006       C  0.80562959  0.41979319  0.33699758    -0.54800
C2007       C  0.79660004  0.38297377  0.32498820     0.08400
C2008       C  0.75875666  0.34674427  0.33798067     0.19300
C2009       C  0.73277737  0.39234998  0.34198108    -0.55500
C2010       C  0.72453265  0.35609687  0.32939377     0.08500
C2011       C  0.77188128  0.38697869  0.38588022    -0.55000
C2012       C  0.76717951  0.35193852  0.37406610     0.09100
H2013       H  0.82854890  0.44828661  0.32688964     0.13600
H2014       H  0.75358922  0.31729766  0.32859747    -0.00700
H2015       H  0.71201272  0.40287540  0.33633691     0.13900
H2016       H  0.77352337  0.39283094  0.41079736     0.13700
C2017       C  0.54322326  0.33961437  0.35510988     0.85500
C2018       C  0.53916646  0.36701752  0.33126432    -0.54800
C2019       C  0.57527658  0.39358932  0.31778740     0.08400
C2020       C  0.61208772  0.39120795  0.32902954     0.19300
C2021       C  0.56535214  0.32061335  0.33558142    -0.55500
C2022       C  0.60114199  0.34737944  0.32202793     0.08500
C2023       C  0.57495620  0.36850994  0.37890233    -0.55000
C2024       C  0.61034544  0.39580384  0.36513662     0.09100
H2025       H  0.51027443  0.36294801  0.32327764     0.13600
H2026       H  0.64108846  0.41416919  0.31811365    -0.00700
H2027       H  0.55400867  0.28902671  0.33048849     0.13900
H2028       H  0.56891678  0.36966595  0.40398068     0.13700
C2029       C  0.65060789  0.31550868  0.25200082     0.85500
C2030       C  0.69518529  0.33801159  0.27226788    -0.54800
C2031       C  0.68980679  0.33396178  0.30504890     0.08400
C2032       C  0.64531589  0.31133080  0.31602171     0.19300
C2033       C  0.62643620  0.27033066  0.26776553    -0.55500
C2034       C  0.62487729  0.26887105  0.30076840     0.08500
C2035       C  0.62588306  0.33467456  0.26865115    -0.55000
C2036       C  0.62480299  0.33352997  0.30145471     0.09100
H2037       H  0.67827065  0.32893558  0.25339436     0.13600
H2038       H  0.64295500  0.30988222  0.34236959    -0.00700
H2039       H  0.61486005  0.24309270  0.25351986     0.13900
H2040       H  0.61036732  0.34707563  0.25558320     0.13700
C2041       C  0.91640677  0.12193590  0.35725993     0.85500
C2042       C  0.93268681  0.11249219  0.32840254    -0.54800
C2043       C  0.90404610  0.08664427  0.30812762     0.08400
C2044       C  0.85963728  0.07026463  0.31956533     0.19300
C2045       C  0.88612885  0.13533712  0.34430994    -0.55500
C2046       C  0.85782254  0.10969323  0.32322423     0.08500
C2047       C  0.88912378  0.08160590  0.37336392    -0.55000
C2048       C  0.85828991  0.05417748  0.35465528     0.09100
H2049       H  0.96499024  0.12693343  0.32365036     0.13600
H2050       H  0.83619947  0.04797389  0.30321829    -0.00700
H2051       H  0.88687148  0.16333443  0.34956810     0.13900
H2052       H  0.89170297  0.07659664  0.39846802     0.13700
C2053       C  0.68681657  0.11575726  0.10614021     0.85500
C2054       C  0.65554571  0.08628959  0.12939492    -0.54800
C2055       C  0.66518499  0.05907856  0.14190775     0.08400
C2056       C  0.70377422  0.06162614  0.12698141     0.19300
C2057       C  0.72843541  0.13288979  0.12458386    -0.55500
C2058       C  0.73841726  0.10558660  0.13576402     0.08500
C2059       C  0.68852681  0.08895427  0.07992130    -0.55000
C2060       C  0.69548781  0.05946407  0.09044506     0.09100
H2061       H  0.63293714  0.09217104  0.13975983     0.13600
H2062       H  0.70977783  0.03750460  0.13519536    -0.00700
H2063       H  0.74754660  0.16401177  0.13181166     0.13900
H2064       H  0.68394659  0.09266716  0.05505036     0.13700
C2065       C  0.91478064  0.27632063  0.10139783     0.85500
C2066       C  0.91745872  0.30959103  0.12275869    -0.54800
C2067       C  0.88104797  0.30007869  0.13618844     0.08400
C2068       C  0.84490486  0.26009607  0.12423401     0.19300
C2069       C  0.89328782  0.23753329  0.12273909    -0.55500
C2070       C  0.85609158  0.22726931  0.13368548     0.08500
C2071       C  0.88387129  0.27075092  0.07589188    -0.55000
C2072       C  0.84857489  0.26528885  0.08774513     0.09100
H2073       H  0.94626163  0.33310469  0.13220170     0.13600
H2074       H  0.81531104  0.25434008  0.13367189    -0.00700
H2075       H  0.90776850  0.22131051  0.13176602     0.13900
H2076       H  0.88972302  0.27225778  0.05064285     0.13700
C2077       C  0.82033100  0.15123836  0.20823859     0.85500
C2078       C  0.83709972  0.19572138  0.18895959    -0.54800
C2079       C  0.83492737  0.19125260  0.15631116     0.08400
C2080       C  0.81970330  0.14772418  0.14405315     0.19300
C2081       C  0.77758699  0.12102568  0.19042582    -0.55500
C2082       C  0.77684493  0.12063399  0.15735269     0.08500
C2083       C  0.84698900  0.13363385  0.19228478    -0.55000
C2084       C  0.84697057  0.13287337  0.15926633     0.09100
H2085       H  0.82915868  0.17820206  0.20712419     0.13600
H2086       H  0.81996961  0.14648317  0.11766335    -0.00700
H2087       H  0.75067161  0.10583689  0.20387634     0.13900
H2088       H  0.86239456  0.12135607  0.20587100     0.13700
C2089       C  0.68745734  0.05329569  0.35678156     0.85500
C2090       C  0.65667422  0.05231950  0.33283622    -0.54800
C2091       C  0.66656384  0.09002394  0.32158786     0.08400
C2092       C  0.70530659  0.12480571  0.33667405     0.19300
C2093       C  0.72937279  0.07786882  0.33945979    -0.55500
C2094       C  0.73907481  0.11445993  0.32793745     0.08500
C2095       C  0.68901493  0.08130129  0.38311739    -0.55000
C2096       C  0.69622144  0.11784301  0.37268339     0.09100
H2097       H  0.63414814  0.02436448  0.32162768     0.13600
H2098       H  0.71220103  0.15542759  0.32900886    -0.00700
H2099       H  0.74963327  0.06679275  0.33366299     0.13900
H2100       H  0.68478604  0.07269502  0.40780301     0.13700
C2101       C  0.84292107  0.27873206  0.35725742     0.85500
C2102       C  0.87446722  0.31286834  0.33756425    -0.54800
C2103       C  0.90178216  0.30437746  0.32365317     0.08400
C2104       C  0.89867483  0.26461939  0.33526023     0.19300
C2105       C  0.82698407  0.23977047  0.33555655    -0.55500
C2106       C  0.85559098  0.23140025  0.32409408     0.08500
C2107       C  0.86795493  0.27353862  0.38330474    -0.55000
C2108       C  0.89840103  0.26843830  0.37207468     0.09100
H2109       H  0.86997220  0.33760099  0.33015714     0.13600
H2110       H  0.92346936  0.25997693  0.32644671    -0.00700
H2111       H  0.79583726  0.22076553  0.32819270     0.13900
H2112       H  0.86485613  0.27761053  0.40840944     0.13700
C2113       C  0.81617818  0.14858865  0.25273628     0.85500
C2114       C  0.77121203  0.13079533  0.27183831    -0.54800
C2115       C  0.77510419  0.13460989  0.30464932     0.08400
C2116       C  0.81857905  0.15134540  0.31686941     0.19300
C2117       C  0.84439316  0.19265630  0.26959149    -0.55500
C2118       C  0.84347118  0.19381037  0.30271858     0.08500
C2119       C  0.83495630  0.12388131  0.26972984    -0.55000
C2120       C  0.83525940  0.12490287  0.30257501     0.09100
H2121       H  0.78865056  0.13840918  0.25332224     0.13600
H2122       H  0.81958000  0.15204480  0.34327095    -0.00700
H2123       H  0.86019854  0.21959589  0.25536951     0.13900
H2124       H  0.84753896  0.10823891  0.25683744     0.13700
C2125       C  0.84880700  0.04917299  0.10693533     0.85500
C2126       C  0.88064358  0.04766904  0.12730461    -0.54800
C2127       C  0.90923925  0.08471052  0.13894642     0.08400
C2128       C  0.90413536  0.12022966  0.12784770     0.19300
C2129       C  0.83250682  0.07114763  0.12860817    -0.55500
C2130       C  0.86062447  0.10850811  0.13922214     0.08500
C2131       C  0.87250612  0.07894495  0.08058051    -0.55000
C2132       C  0.90253316  0.11490933  0.09093779     0.09100
H2133       H  0.87852483  0.01928671  0.13420962     0.13600
H2134       H  0.92824211  0.15026690  0.13639082    -0.00700
H2135       H  0.80152396  0.05801991  0.13668811     0.13900
H2136       H  0.86885473  0.07113054  0.05554941     0.13700
O2137       O  0.78553589  0.38254269  0.19346392    -0.58800
C2138       C  0.80607801  0.37952562  0.29319869     0.73800
O2139       O  0.83192160  0.32368122  0.24973596    -0.60000
C2140       C  0.81138353  0.38543638  0.17318735     0.73800
C2141       C  0.86592394  0.44290905  0.22891206     0.76100
Cd2142     Cd  0.81691951  0.36827410  0.23372321     1.29100
O2143       O  0.77792081  0.36737895  0.27255063    -0.58800
O2144       O  0.82854252  0.42914887  0.23436059    -0.57700
C2145       C  0.80212082  0.29260273  0.23814550     0.76100
O2146       O  0.88184179  0.42027478  0.22900230    -0.60000
O2147       O  0.84122475  0.38694276  0.28559006    -0.58500
O2148       O  0.83994239  0.37946682  0.18189844    -0.58500
O2149       O  0.77516847  0.29601103  0.22301835    -0.57600
O2150       O  0.89564793  0.28619386  0.18615445    -0.58800
C2151       C  0.90610546  0.31216224  0.28999286     0.73800
O2152       O  0.92736887  0.37436398  0.22864214    -0.60000
C2153       C  0.88208078  0.30514577  0.16978940     0.73800
C2154       C  0.80382391  0.25631279  0.23953991     0.76100
Cd2155     Cd  0.88054090  0.30357956  0.23111614     1.37500
O2156       O  0.91074102  0.28798849  0.27161565    -0.58800
O2157       O  0.81269798  0.24666258  0.21351771    -0.57700
C2158       C  0.95507276  0.36476462  0.22585448     0.76100
O2159       O  0.82156078  0.25380303  0.26388600    -0.60000
O2160       O  0.89638155  0.33714537  0.27849518    -0.58500
O2161       O  0.86709210  0.32482310  0.18317613    -0.58500
O2162       O  0.94563425  0.32764045  0.22282952    -0.57600
O2163       O  0.57605682  0.39067897  0.19359700    -0.58800
C2164       C  0.57667980  0.41089534  0.28790714     0.73800
O2165       O  0.62914866  0.50270231  0.23988420    -0.60000
C2166       C  0.57275280  0.41025309  0.17066509     0.73800
C2167       C  0.49743033  0.39285364  0.22800389     0.76100
Cd2168     Cd  0.57855973  0.43682041  0.23005086     1.37500
O2169       O  0.59114209  0.40086894  0.26482630    -0.58800
O2170       O  0.52076083  0.37840425  0.23055677    -0.57700
C2171       C  0.65830885  0.49543337  0.23944593     0.76100
O2172       O  0.51228064  0.43129083  0.22810975    -0.60000
O2173       O  0.56292549  0.43476565  0.28389746    -0.58500
O2174       O  0.57282892  0.44317612  0.17605001    -0.58500
O2175       O  0.65083493  0.46042655  0.23131389    -0.57600
O2176       O  0.57064381  0.16254532  0.26302384    -0.58800
C2177       C  0.57723804  0.15909663  0.17950928     0.73800
O2178       O  0.65521188  0.14493664  0.19635213    -0.60000
C2179       C  0.57341206  0.14423870  0.28709430     0.73800
C2180       C  0.55459708  0.05451584  0.22261661     0.76100
Cd2181     Cd  0.59854013  0.12939422  0.22817008     1.37500
O2182       O  0.55107378  0.12450963  0.18912800    -0.58800
O2183       O  0.57365909  0.06709676  0.19685473    -0.57700
C2184       C  0.68171094  0.16318348  0.21733457     0.76100
O2185       O  0.57459012  0.06197912  0.24802885    -0.60000
O2186       O  0.60735215  0.18140587  0.19682406    -0.58500
O2187       O  0.58302759  0.11749760  0.28222028    -0.58500
O2188       O  0.67037926  0.17118833  0.24323549    -0.57600
O2189       O  0.68946858  0.12567810  0.27502837    -0.58800
C2190       C  0.66104636  0.05340131  0.17615013     0.73800
O2191       O  0.70463187  0.05192496  0.27524889    -0.60000
C2192       C  0.66150269  0.09475097  0.28802002     0.73800
C2193       C  0.72046231  0.16545627  0.21373757     0.76100
Cd2194     Cd  0.69470676  0.08973908  0.23260639     1.37500
O2195       O  0.68605706  0.04625274  0.18978009    -0.58800
O2196       O  0.73867785  0.16549150  0.23866041    -0.57700
C2197       C  0.70238165  0.02952401  0.25260221     0.76100
O2198       O  0.72181425  0.14485809  0.19111476    -0.60000
O2199       O  0.64183140  0.06590773  0.19303686    -0.58500
O2200       O  0.63847188  0.06517464  0.27040020    -0.58500
O2201       O  0.72773656  0.04643619  0.23055630    -0.57600
O2202       O  0.94534667  0.11254816  0.18749609    -0.58800
C2203       C  0.91757359  0.08076014  0.27730888     0.73800
O2204       O  0.93424622  0.00177670  0.24349936    -0.60000
C2205       C  0.93373418  0.08591940  0.16573924     0.73800
C2206       C  0.01693455  0.05540084  0.22607573     0.76100
Cd2207     Cd  0.94946650  0.06440221  0.22400165     1.37500
O2208       O  0.95427707  0.10325958  0.26861915    -0.58800
O2209       O  0.01102959  0.07597805  0.24690262    -0.57700
C2210       C  0.88872343  0.48413068  0.22338097     0.76100
O2211       O  0.99213190  0.04057265  0.20335461    -0.60000
O2212       O  0.89393287  0.05284910  0.25888998    -0.58500
O2213       O  0.93881080  0.05617935  0.16991875    -0.58500
O2214       O  0.88746136  0.00950520  0.21965280    -0.57600
C2215       C  0.71775078  0.21550391  0.41209582     0.85500
C2216       C  0.69032266  0.21683353  0.38612028    -0.54800
C2217       C  0.65534414  0.18384819  0.38029906     0.08400
C2218       C  0.65176968  0.14756144  0.39961408     0.19300
C2219       C  0.69000508  0.19847997  0.44115399    -0.55500
C2220       C  0.65632804  0.16101943  0.43515183     0.08500
C2221       C  0.72513538  0.18072062  0.40263360    -0.55000
C2222       C  0.69164400  0.14674806  0.39325516     0.09100
H2223       H  0.69873672  0.24371566  0.37307909     0.13600
H2224       H  0.62376594  0.11852899  0.39437718    -0.00700
H2225       H  0.69868374  0.21230970  0.46436326     0.13900
H2226       H  0.75511062  0.18431503  0.40005408     0.13700
C2227       C  0.70632487  0.47934763  0.40409111     0.85500
C2228       C  0.71274615  0.00959842  0.37408201    -0.54800
C2229       C  0.67968970  0.01249469  0.36970561     0.08400
C2230       C  0.63678316  0.47111320  0.38550302     0.19300
C2231       C  0.68368960  0.48736955  0.43063890    -0.55500
C2232       C  0.64557110  0.47942214  0.42137540     0.08500
C2233       C  0.67445463  0.43578125  0.39342944    -0.55000
C2234       C  0.63990089  0.43245420  0.38175582     0.09100
H2235       H  0.72735624  0.01051949  0.35186659     0.13600
H2236       H  0.60720655  0.46708469  0.37763221    -0.00700
H2237       H  0.69515540  0.49558423  0.45455020     0.13900
H2238       H  0.67973221  0.41034132  0.39321370     0.13700
C2239       C  0.70590482  0.20640296  0.05675250     0.85500
C2240       C  0.70961241  0.18303352  0.08484933    -0.54800
C2241       C  0.67748204  0.14785766  0.09284147     0.08400
C2242       C  0.63911088  0.14218491  0.07513728     0.19300
C2243       C  0.68550213  0.17545251  0.03039438    -0.55500
C2244       C  0.64883459  0.14348828  0.03939210     0.08500
C2245       C  0.67210138  0.21513210  0.06764807    -0.55000
C2246       C  0.63902146  0.18258491  0.07984622     0.09100
H2247       H  0.73704093  0.19493715  0.09814897     0.13600
H2248       H  0.61059015  0.11504592  0.08265516    -0.00700
H2249       H  0.69757125  0.17921431  0.00670786     0.13900
H2250       H  0.67534759  0.24506476  0.06803324     0.13700
C2251       C  0.71897017  0.48614055  0.05011993     0.85500
C2252       C  0.69303235  0.45995040  0.07723791    -0.54800
C2253       C  0.65661182  0.45505841  0.08067913     0.08400
C2254       C  0.65135347  0.48575865  0.06045855     0.19300
C2255       C  0.69082752  0.47237900  0.02082598    -0.55500
C2256       C  0.65598896  0.47429073  0.02567544     0.08500
C2257       C  0.72786063  0.02869773  0.05963151    -0.55000
C2258       C  0.69314388  0.02727967  0.06864418     0.09100
H2259       H  0.70503478  0.44832457  0.09440511     0.13600
H2260       H  0.62239374  0.48513945  0.06494165    -0.00700
H2261       H  0.69986935  0.46641141  0.99804919     0.13900
H2262       H  0.75708766  0.05600863  0.06248894     0.13700
C2263       C  0.98616130  0.25376928  0.05429697     0.85500
C2264       C  0.95568447  0.25058829  0.07902032    -0.54800
C2265       C  0.95449456  0.28366920  0.08694544     0.08400
C2266       C  0.98853772  0.32136407  0.07031572     0.19300
C2267       C  0.97919207  0.27461081  0.02609694    -0.55500
C2268       C  0.98279517  0.31125817  0.03429261     0.08500
C2269       C  0.52779813  0.28707316  0.06716875    -0.55000
C2270       C  0.52821394  0.32080822  0.07779448     0.09100
H2271       H  0.93526874  0.22247640  0.08977133     0.13600
H2272       H  0.98942627  0.34998538  0.07678101    -0.00700
H2273       H  0.97215528  0.26189338  0.00241517     0.13900
H2274       H  0.55420543  0.28350431  0.06905642     0.13700
C2275       C  0.74943256  0.24440192  0.05244269     0.85500
C2276       C  0.75093805  0.27080405  0.08002549    -0.54800
C2277       C  0.78241290  0.30703461  0.08253646     0.08400
C2278       C  0.81840990  0.31047618  0.06257201     0.19300
C2279       C  0.76569529  0.27261884  0.02278490    -0.55500
C2280       C  0.80398866  0.30608594  0.02781144     0.08500
C2281       C  0.78470559  0.23674940  0.05927633    -0.55000
C2282       C  0.81934041  0.27024664  0.06792975     0.09100
H2283       H  0.73055879  0.25873932  0.09983555     0.13600
H2284       H  0.84770879  0.33833545  0.06748046    -0.00700
H2285       H  0.75001143  0.26571505  0.00016693     0.13900
H2286       H  0.78142358  0.20683699  0.06072422     0.13700
C2287       C  0.98035276  0.20981810  0.05291982     0.85500
C2288       C  0.50082380  0.20900735  0.08416867    -0.54800
C2289       C  0.50619406  0.17816427  0.08911893     0.08400
C2290       C  0.97727949  0.14174813  0.06706733     0.19300
C2291       C  0.99704473  0.19401077  0.02635720    -0.55500
C2292       C  0.99177065  0.15602529  0.03273603     0.08500
C2293       C  0.93679307  0.17377068  0.05680116    -0.55000
C2294       C  0.93552984  0.14018660  0.06858527     0.09100
H2295       H  0.50629852  0.22975162  0.10361033     0.13600
H2296       H  0.97551164  0.11273493  0.07346621    -0.00700
H2297       H  0.00897426  0.20980109  0.00422295     0.13900
H2298       H  0.90966177  0.17617032  0.05508004     0.13700
C2299       C  0.98566458  0.21474768  0.40787992     0.85500
C2300       C  0.95516902  0.18776715  0.38302239    -0.54800
C2301       C  0.95165311  0.15219720  0.37724027     0.08400
C2302       C  0.98714192  0.14906656  0.39178112     0.19300
C2303       C  0.97881481  0.18636370  0.43617861    -0.55500
C2304       C  0.98231940  0.15304699  0.42782977     0.08500
C2305       C  0.52718793  0.22234061  0.39460218    -0.55000
C2306       C  0.52660785  0.18879167  0.38305643     0.09100
H2307       H  0.94246197  0.19984143  0.36662890     0.13600
H2308       H  0.98748920  0.12118514  0.38484975    -0.00700
H2309       H  0.97457895  0.19337327  0.46021676     0.13900
H2310       H  0.55367621  0.25221439  0.39208871     0.13700
C2311       C  0.97984988  0.25323168  0.40857214     0.85500
C2312       C  0.50069297  0.27482581  0.37839696    -0.54800
C2313       C  0.50358665  0.30982282  0.37173991     0.08400
C2314       C  0.97469579  0.31695602  0.39355813     0.19300
C2315       C  0.99641950  0.28643561  0.43468555    -0.55500
C2316       C  0.99003078  0.31845015  0.42809061     0.08500
C2317       C  0.93581329  0.24449096  0.40399431    -0.55000
C2318       C  0.93324552  0.27637689  0.39275056     0.09100
H2319       H  0.50738267  0.25949428  0.36014279     0.13600
H2320       H  0.97227207  0.34371915  0.38675009    -0.00700
H2321       H  0.00626274  0.28193410  0.45762352     0.13900
H2322       H  0.90944822  0.21431729  0.40467649     0.13700
C2323       C  0.75681400  0.25798254  0.40995067     0.85500
C2324       C  0.77593555  0.25659888  0.37792715    -0.54800
C2325       C  0.81090251  0.28852182  0.36997560     0.08400
C2326       C  0.81886044  0.32504882  0.39093289     0.19300
C2327       C  0.79193431  0.27498910  0.43399301    -0.55500
C2328       C  0.82375940  0.31232178  0.42483218     0.08500
C2329       C  0.74813235  0.29304917  0.40677211    -0.55000
C2330       C  0.77823898  0.32607163  0.39298350     0.09100
H2331       H  0.76299323  0.23025574  0.36290836     0.13600
H2332       H  0.84486311  0.35380984  0.38242914    -0.00700
H2333       H  0.78914213  0.26225911  0.45746296     0.13900
H2334       H  0.71847856  0.28981191  0.41060017     0.13700
C2335       C  0.75789558  0.48187211  0.05293470     0.85500
C2336       C  0.78289159  0.00690202  0.08418837    -0.54800
C2337       C  0.81737131  0.00870966  0.09273854     0.08400
C2338       C  0.82162099  0.47887073  0.07165821     0.19300
C2339       C  0.79099320  0.49675707  0.02746104    -0.55500
C2340       C  0.82374517  0.49296423  0.03649903     0.08500
C2341       C  0.74968500  0.43852119  0.06062560    -0.55000
C2342       C  0.78144087  0.43749526  0.07401433     0.09100
H2343       H  0.77099273  0.02220868  0.09797089     0.13600
H2344       H  0.84854571  0.47751530  0.07989475    -0.00700
H2345       H  0.78698394  0.50507409  0.00372677     0.13900
H2346       H  0.71983520  0.41168628  0.05949177     0.13700
C2347       C  0.75159242  0.48769484  0.40674435     0.85500
C2348       C  0.75254448  0.46239324  0.37919891    -0.54800
C2349       C  0.78405229  0.45771653  0.37566314     0.08400
C2350       C  0.82038879  0.49021805  0.39570096     0.19300
C2351       C  0.76901005  0.47715397  0.43620963    -0.55500
C2352       C  0.80722621  0.48237442  0.43115609     0.08500
C2353       C  0.78866177  0.01988187  0.37727317    -0.55000
C2354       C  0.82293116  0.01898657  0.37089578     0.09100
H2355       H  0.73327993  0.45659815  0.35879556     0.13600
H2356       H  0.84949430  0.49140835  0.39063043    -0.00700
H2357       H  0.75380662  0.46892227  0.45896136     0.13900
H2358       H  0.78804234  0.04709276  0.37094930     0.13700
C2359       C  0.94377835  0.36612997  0.48476460     0.85500
C2360       C  0.94820505  0.34507429  0.45468942    -0.54800
C2361       C  0.98259046  0.34156839  0.45396876     0.08400
C2362       C  0.50931070  0.35965834  0.48436948     0.19300
C2363       C  0.94710843  0.34333335  0.01193664    -0.55500
C2364       C  0.97979840  0.33836238  0.01128544     0.08500
C2365       C  0.98381409  0.40656409  0.48524507    -0.55000
C2366       C  0.51884003  0.40452424  0.48622369     0.09100
H2367       H  0.92544253  0.33306566  0.43609352     0.13600
H2368       H  0.53650744  0.35623004  0.48467197    -0.00700
H2369       H  0.92459356  0.33135823  0.03044855     0.13900
H2370       H  0.98413622  0.43463498  0.48251463     0.13700
C2371       C  0.52716750  0.09939742  0.47731353     0.85500
C2372       C  0.52240025  0.12254153  0.44938384    -0.54800
C2373       C  0.98911309  0.12758702  0.45085386     0.08400
C2374       C  0.96262804  0.10749045  0.48013310     0.19300
C2375       C  0.52621998  0.12204399  0.00697286    -0.55500
C2376       C  0.99346484  0.12828482  0.00814667     0.08500
C2377       C  0.98704424  0.05964207  0.47803305    -0.55000
C2378       C  0.95251629  0.06216398  0.47787884     0.09100
H2379       H  0.54389281  0.13446729  0.43013053     0.13600
H2380       H  0.93573325  0.11136075  0.48151323    -0.00700
H2381       H  0.54981769  0.13234494  0.02443445     0.13900
H2382       H  0.98673154  0.03159350  0.48070812     0.13700
C2383       C  0.60474553  0.06025274  0.48065425     0.85500
C2384       C  0.61430069  0.07836692  0.01404286    -0.54800
C2385       C  0.61948269  0.11585765  0.01605357     0.08400
C2386       C  0.60763938  0.13017514  0.48554182     0.19300
C2387       C  0.56475808  0.05885081  0.47198209    -0.55500
C2388       C  0.56517127  0.09498102  0.47631170     0.08500
C2389       C  0.63616475  0.09427304  0.45914715    -0.55000
C2390       C  0.63598879  0.12983247  0.46021985     0.09100
H2391       H  0.61987950  0.06451688  0.03436370     0.13600
H2392       H  0.60914298  0.15983714  0.48806188    -0.00700
H2393       H  0.53873819  0.03134990  0.46360971     0.13900
H2394       H  0.65652698  0.09078492  0.44366847     0.13700
C2395       C  0.60553716  0.01912313  0.47859991     0.85500
C2396       C  0.63669755  0.01734924  0.00094006    -0.54800
C2397       C  0.63333204  0.48094129  0.99974827     0.08400
C2398       C  0.60246630  0.44960119  0.47540565     0.19300
C2399       C  0.61635480  0.00988785  0.44585585    -0.55500
C2400       C  0.61340806  0.47428617  0.44373457     0.08500
C2401       C  0.56200624  0.48039366  0.48945698    -0.55000
C2402       C  0.56009692  0.44369474  0.48544912     0.09100
H2403       H  0.65762253  0.04233774  0.01569043     0.13600
H2404       H  0.60305162  0.42093167  0.47355968    -0.00700
H2405       H  0.62267062  0.02927931  0.42547160     0.13900
H2406       H  0.53775898  0.48387413  0.49920469     0.13700
C2407       C  0.86565599  0.40346802  0.47996376     0.85500
C2408       C  0.83331129  0.37263312  0.00192779    -0.54800
C2409       C  0.83105780  0.33628689  0.00359676     0.08400
C2410       C  0.86094558  0.33242202  0.48069539     0.19300
C2411       C  0.90483086  0.40476398  0.49014631    -0.55500
C2412       C  0.90446170  0.36873202  0.48724051     0.08500
C2413       C  0.85580595  0.38144177  0.44739430    -0.55000
C2414       C  0.85051309  0.34311932  0.44833340     0.09100
H2415       H  0.81200941  0.37830425  0.01382179     0.13600
H2416       H  0.85912883  0.30250498  0.48122488    -0.00700
H2417       H  0.93103072  0.43281574  0.49725000     0.13900
H2418       H  0.84958277  0.39337138  0.42617306     0.13700
C2419       C  0.86644153  0.44556011  0.48085841     0.85500
C2420       C  0.85626855  0.45749658  0.01327799    -0.54800
C2421       C  0.85156525  0.49072248  0.01279317     0.08400
C2422       C  0.86850129  0.01753645  0.47992582     0.19300
C2423       C  0.83552367  0.44551539  0.45819836    -0.55500
C2424       C  0.83415739  0.47997929  0.45624828     0.08500
C2425       C  0.90624011  0.48319482  0.47167182    -0.55000
C2426       C  0.91158949  0.02310491  0.47491462     0.09100
H2427       H  0.84897313  0.43861473  0.03418203     0.13600
H2428       H  0.86797144  0.04629224  0.48077883    -0.00700
H2429       H  0.81492227  0.41908305  0.44548396     0.13900
H2430       H  0.93162298  0.48006960  0.46440338     0.13700
C2431       C  0.62344739  0.18900364  0.86122848     0.85500
C2432       C  0.59878102  0.15334965  0.83993071    -0.54800
C2433       C  0.57240727  0.15760126  0.82045509     0.08400
C2434       C  0.56843297  0.19526458  0.82855016     0.19300
C2435       C  0.63987347  0.22698401  0.83844578    -0.55500
C2436       C  0.61164573  0.23142574  0.82184969     0.08500
C2437       C  0.59231468  0.19147683  0.88207615    -0.55000
C2438       C  0.56228377  0.19284956  0.86572388     0.09100
H2439       H  0.60776960  0.13074204  0.83635470     0.13600
H2440       H  0.54400639  0.19655638  0.81520632    -0.00700
H2441       H  0.67135231  0.24827271  0.83360624     0.13900
H2442       H  0.59346190  0.19113127  0.90782421     0.13700
C2443       C  0.54631711  0.18799940  0.60544769     0.85500
C2444       C  0.53967166  0.16269749  0.63481638    -0.54800
C2445       C  0.57489848  0.17190474  0.64938942     0.08400
C2446       C  0.61361455  0.20296242  0.63280720     0.19300
C2447       C  0.57427784  0.23307927  0.61736115    -0.55500
C2448       C  0.60875537  0.24035067  0.63261271     0.08500
C2449       C  0.57407752  0.18087604  0.58400309    -0.55000
C2450       C  0.60846436  0.18703069  0.59822347     0.09100
H2451       H  0.51010841  0.14207253  0.64458845     0.13600
H2452       H  0.64215158  0.20846516  0.64433938    -0.00700
H2453       H  0.56684600  0.25688721  0.61708365     0.13900
H2454       H  0.56878740  0.17508497  0.55911118     0.13700
C2455       C  0.62554882  0.41750348  0.59843528     0.85500
C2456       C  0.60332133  0.42923609  0.62131717    -0.54800
C2457       C  0.57625404  0.39821382  0.63941142     0.08400
C2458       C  0.57152478  0.35653244  0.63127618     0.19300
C2459       C  0.64208381  0.39398465  0.61888920    -0.55500
C2460       C  0.61451752  0.36271276  0.63669952     0.08500
C2461       C  0.59259194  0.38500231  0.57766766    -0.55000
C2462       C  0.56390648  0.35322957  0.59456114     0.09100
H2463       H  0.61312478  0.46082462  0.62623657     0.13600
H2464       H  0.54736484  0.33100536  0.64489778    -0.00700
H2465       H  0.67289847  0.40031780  0.62052312     0.13900
H2466       H  0.59128255  0.38735956  0.55200652     0.13700
C2467       C  0.77583265  0.33884223  0.59916839     0.85500
C2468       C  0.81016041  0.36274789  0.62155010    -0.54800
C2469       C  0.80529641  0.38947120  0.63951499     0.08400
C2470       C  0.76935537  0.39506943  0.62939431     0.19300
C2471       C  0.73546679  0.32366327  0.61944511    -0.55500
C2472       C  0.73153205  0.35249702  0.63586511     0.08500
C2473       C  0.77561969  0.37020532  0.57721386    -0.55000
C2474       C  0.77475470  0.40115048  0.59236976     0.09100
H2475       H  0.83154866  0.35270770  0.62733812     0.13600
H2476       H  0.76857656  0.42024521  0.64196487    -0.00700
H2477       H  0.71113273  0.29278582  0.62151698     0.13900
H2478       H  0.77521718  0.36789057  0.55186065     0.13700
C2479       C  0.64838250  0.31436525  0.70766396     0.85500
C2480       C  0.62651857  0.26979128  0.68789803    -0.54800
C2481       C  0.62967242  0.27536442  0.65546508     0.08400
C2482       C  0.65112490  0.31923656  0.64357870     0.19300
C2483       C  0.69299156  0.33907899  0.69108882    -0.55500
C2484       C  0.69415293  0.34037796  0.65784566     0.08500
C2485       C  0.62783502  0.33837923  0.69111729    -0.55000
C2486       C  0.62823450  0.33913643  0.65810735     0.09100
H2487       H  0.63515689  0.28714018  0.70615080     0.13600
H2488       H  0.65176212  0.32065729  0.61718171    -0.00700
H2489       H  0.71940615  0.35030719  0.70580001     0.13900
H2490       H  0.61521015  0.35354632  0.70441395     0.13700
C2491       C  0.77435482  0.41719085  0.86041779     0.85500
C2492       C  0.80501800  0.42013745  0.83593575    -0.54800
C2493       C  0.79592998  0.38319978  0.82408352     0.08400
C2494       C  0.75866006  0.34700506  0.83770806     0.19300
C2495       C  0.73229575  0.39223688  0.84238668    -0.55500
C2496       C  0.72408356  0.35603575  0.82974064     0.08500
C2497       C  0.77295410  0.38780267  0.88540703    -0.55000
C2498       C  0.76811308  0.35269738  0.87367237     0.09100
H2499       H  0.82762033  0.44856377  0.82552904     0.13600
H2500       H  0.75338797  0.31751187  0.82834701    -0.00700
H2501       H  0.71117992  0.40245756  0.83716995     0.13900
H2502       H  0.77520647  0.39395214  0.91023112     0.13700
C2503       C  0.54257976  0.33945232  0.85521555     0.85500
C2504       C  0.53863878  0.36691574  0.83138830    -0.54800
C2505       C  0.57480222  0.39349198  0.81801313     0.08400
C2506       C  0.61154097  0.39103314  0.82925439     0.19300
C2507       C  0.56473924  0.32044141  0.83571229    -0.55500
C2508       C  0.60055941  0.34721450  0.82216227     0.08500
C2509       C  0.57430952  0.36836050  0.87907706    -0.55000
C2510       C  0.60976198  0.39567215  0.86533237     0.09100
H2511       H  0.50978450  0.36287344  0.82332101     0.13600
H2512       H  0.64056778  0.41399237  0.81836978    -0.00700
H2513       H  0.55338025  0.28884132  0.83066002     0.13900
H2514       H  0.56822918  0.36954705  0.90413689     0.13700
C2515       C  0.65066036  0.31575740  0.75216131     0.85500
C2516       C  0.69506558  0.33833587  0.77260264    -0.54800
C2517       C  0.68946506  0.33414743  0.80533851     0.08400
C2518       C  0.64493270  0.31140517  0.81617216     0.19300
C2519       C  0.62659064  0.27056145  0.76786529    -0.55500
C2520       C  0.62477531  0.26903664  0.80085047     0.08500
C2521       C  0.62560775  0.33469853  0.76870788    -0.55000
C2522       C  0.62431556  0.33345664  0.80154520     0.09100
H2523       H  0.67828054  0.32939323  0.75366797     0.13600
H2524       H  0.64243747  0.30986857  0.84251308    -0.00700
H2525       H  0.61525381  0.24335975  0.75360856     0.13900
H2526       H  0.61012432  0.34704790  0.75551364     0.13700
C2527       C  0.91644706  0.12188241  0.85739532     0.85500
C2528       C  0.93260425  0.11228303  0.82855376    -0.54800
C2529       C  0.90389201  0.08634691  0.80836041     0.08400
C2530       C  0.85953273  0.07004302  0.81984709     0.19300
C2531       C  0.88611483  0.13522131  0.84442253    -0.55500
C2532       C  0.85773110  0.10947415  0.82340726     0.08500
C2533       C  0.88916948  0.08158065  0.87360445    -0.55000
C2534       C  0.85826018  0.05408956  0.85495432     0.09100
H2535       H  0.96489206  0.12673471  0.82373259     0.13600
H2536       H  0.83604882  0.04768794  0.80356259    -0.00700
H2537       H  0.88688817  0.16325172  0.84959243     0.13900
H2538       H  0.89180639  0.07664589  0.89871358     0.13700
C2539       C  0.68663096  0.11494755  0.60591509     0.85500
C2540       C  0.65506940  0.08511221  0.62884865    -0.54800
C2541       C  0.66474402  0.05792400  0.64137645     0.08400
C2542       C  0.70368015  0.06090623  0.62675995     0.19300
C2543       C  0.72795148  0.13209679  0.62468493    -0.55500
C2544       C  0.73796477  0.10484739  0.63587886     0.08500
C2545       C  0.68889870  0.08852282  0.57965020    -0.55000
C2546       C  0.69598904  0.05912204  0.59019291     0.09100
H2547       H  0.63220113  0.09071811  0.63905860     0.13600
H2548       H  0.70977225  0.03683324  0.63494897    -0.00700
H2549       H  0.74680465  0.16320168  0.63208125     0.13900
H2550       H  0.68442984  0.09233276  0.55476933     0.13700
C2551       C  0.91398178  0.27546652  0.60140036     0.85500
C2552       C  0.91658319  0.30875540  0.62269336    -0.54800
C2553       C  0.88015273  0.29921715  0.63608578     0.08400
C2554       C  0.84405212  0.25927659  0.62402272     0.19300
C2555       C  0.89243840  0.23668960  0.62269988    -0.55500
C2556       C  0.85522954  0.22644974  0.63356947     0.08500
C2557       C  0.88324322  0.26991189  0.57579181    -0.55000
C2558       C  0.84795298  0.26455386  0.58750903     0.09100
H2559       H  0.94536237  0.33225911  0.63218110     0.13600
H2560       H  0.81441931  0.25352320  0.63336621    -0.00700
H2561       H  0.90690747  0.22047088  0.63176380     0.13900
H2562       H  0.88924128  0.27146206  0.55056100     0.13700
C2563       C  0.81994672  0.15069985  0.70826855     0.85500
C2564       C  0.83662243  0.19511237  0.68893213    -0.54800
C2565       C  0.83418947  0.19055172  0.65629118     0.08400
C2566       C  0.81900797  0.14704790  0.64407853     0.19300
C2567       C  0.77711451  0.12049929  0.69055722    -0.55500
C2568       C  0.77629850  0.11996099  0.65748540     0.08500
C2569       C  0.84649111  0.13301696  0.69221251    -0.55000
C2570       C  0.84632664  0.13225180  0.65917889     0.09100
H2571       H  0.82882044  0.17766299  0.70714362     0.13600
H2572       H  0.81913985  0.14575808  0.61768541    -0.00700
H2573       H  0.75023329  0.10541400  0.70402797     0.13900
H2574       H  0.86191591  0.12071585  0.70575078     0.13700
C2575       C  0.68729544  0.05349108  0.85675488     0.85500
C2576       C  0.65660723  0.05238645  0.83263261    -0.54800
C2577       C  0.66655697  0.09004848  0.82120654     0.08400
C2578       C  0.70520121  0.12490054  0.83633109     0.19300
C2579       C  0.72923527  0.07796769  0.83950132    -0.55500
C2580       C  0.73896727  0.11448899  0.82788076     0.08500
C2581       C  0.68876414  0.08164920  0.88291655    -0.55000
C2582       C  0.69602455  0.11815450  0.87232193     0.09100
H2583       H  0.63419485  0.02437918  0.82141886     0.13600
H2584       H  0.71214109  0.15547892  0.82849804    -0.00700
H2585       H  0.74954194  0.06692449  0.83379759     0.13900
H2586       H  0.68460881  0.07317140  0.90761427     0.13700
C2587       C  0.84311031  0.27863383  0.85722726     0.85500
C2588       C  0.87464815  0.31251875  0.83732892    -0.54800
C2589       C  0.90184908  0.30380264  0.82348225     0.08400
C2590       C  0.89865703  0.26413126  0.83529975     0.19300
C2591       C  0.82698937  0.23943669  0.83577776    -0.55500
C2592       C  0.85550937  0.23095851  0.82426466     0.08500
C2593       C  0.86822635  0.27362650  0.88330577    -0.55000
C2594       C  0.89856069  0.26832037  0.87209039     0.09100
H2595       H  0.87024432  0.33726568  0.82979699     0.13600
H2596       H  0.92335717  0.25931799  0.82651809    -0.00700
H2597       H  0.79579590  0.22036472  0.82857440     0.13900
H2598       H  0.86529178  0.27798436  0.90838336     0.13700
C2599       C  0.81595590  0.14817194  0.75280320     0.85500
C2600       C  0.77103482  0.13052229  0.77188534    -0.54800
C2601       C  0.77497019  0.13439652  0.80466287     0.08400
C2602       C  0.81838858  0.15098980  0.81694770     0.19300
C2603       C  0.84417480  0.19226391  0.76966358    -0.55500
C2604       C  0.84330701  0.19341495  0.80281387     0.08500
C2605       C  0.83474408  0.12346583  0.76984564    -0.55000
C2606       C  0.83506629  0.12453836  0.80270292     0.09100
H2607       H  0.78847857  0.13797968  0.75340862     0.13600
H2608       H  0.81934489  0.15167957  0.84335217    -0.00700
H2609       H  0.85984955  0.21919357  0.75542551     0.13900
H2610       H  0.84736878  0.10785705  0.75695497     0.13700
C2611       C  0.84825861  0.04869702  0.60672860     0.85500
C2612       C  0.87992594  0.04720579  0.62731117    -0.54800
C2613       C  0.90847533  0.08423241  0.63897091     0.08400
C2614       C  0.90349810  0.11974146  0.62774718     0.19300
C2615       C  0.83180285  0.07071782  0.62818374    -0.55500
C2616       C  0.85993518  0.10800695  0.63896440     0.08500
C2617       C  0.87214662  0.07846959  0.58041994    -0.55000
C2618       C  0.90214865  0.11440447  0.59083790     0.09100
H2619       H  0.87775361  0.01882136  0.63428715     0.13600
H2620       H  0.92755784  0.14976728  0.63635113    -0.00700
H2621       H  0.80075560  0.05769422  0.63605658     0.13900
H2622       H  0.86866392  0.07073363  0.55538696     0.13700
O2623       O  0.78572704  0.38191053  0.69270648    -0.58800
C2624       C  0.80541015  0.37913948  0.79239946     0.73800
O2625       O  0.83216298  0.32348163  0.74896949    -0.60000
C2626       C  0.81191686  0.38544506  0.67252945     0.73800
C2627       C  0.86484581  0.44249191  0.72849062     0.76100
Cd2628     Cd  0.81677580  0.36771426  0.73296556     1.29100
O2629       O  0.77720903  0.36623367  0.77174329    -0.58800
O2630       O  0.82736744  0.42825098  0.73388791    -0.57700
C2631       C  0.80224000  0.29225486  0.73764117     0.76100
O2632       O  0.88121731  0.42024986  0.72839614    -0.60000
O2633       O  0.84067476  0.38682345  0.78489789    -0.58500
O2634       O  0.84060330  0.37965601  0.68122728    -0.58500
O2635       O  0.77527047  0.29548632  0.72236554    -0.57600
O2636       O  0.89493551  0.28510272  0.68592540    -0.58800
C2637       C  0.90612829  0.31132288  0.78979117     0.73800
O2638       O  0.92679170  0.37372431  0.72848400    -0.60000
C2639       C  0.88127132  0.30409810  0.66971776     0.73800
C2640       C  0.80369280  0.25587027  0.73963970     0.76100
Cd2641     Cd  0.88044994  0.30264047  0.73102645     1.37500
O2642       O  0.91084943  0.28710799  0.77150666    -0.58800
O2643       O  0.81245928  0.24559208  0.71386589    -0.57700
C2644       C  0.95486143  0.36464375  0.72569451     0.76100
O2645       O  0.82133657  0.25371600  0.76418117    -0.60000
O2646       O  0.89629249  0.33616664  0.77819986    -0.58500
O2647       O  0.86645628  0.32382598  0.68327083    -0.58500
O2648       O  0.94585608  0.32765777  0.72258334    -0.57600
O2649       O  0.57590039  0.38988381  0.69415072    -0.58800
C2650       C  0.57633140  0.41072980  0.78813829     0.73800
O2651       O  0.62866390  0.50183699  0.74125558    -0.60000
C2652       C  0.57332102  0.40979748  0.67114256     0.73800
C2653       C  0.49732408  0.39181882  0.72816947     0.76100
Cd2654     Cd  0.57831088  0.43621626  0.73031757     1.37500
O2655       O  0.59111481  0.40080710  0.76521539    -0.58800
O2656       O  0.52074902  0.37757790  0.73148579    -0.57700
C2657       C  0.65796743  0.49483517  0.73990608     0.76100
O2658       O  0.51200685  0.43022242  0.72750751    -0.60000
O2659       O  0.56233737  0.43437335  0.78396570    -0.58500
O2660       O  0.57342926  0.44275806  0.67641758    -0.58500
O2661       O  0.65061814  0.46017477  0.73083568    -0.57600
O2662       O  0.57112027  0.16316252  0.76372217    -0.58800
C2663       C  0.57694327  0.15863121  0.68041813     0.73800
O2664       O  0.65404714  0.14364260  0.69672450    -0.60000
C2665       C  0.57313507  0.14451018  0.78785307     0.73800
C2666       C  0.55435496  0.05434841  0.72437260     0.76100
Cd2667     Cd  0.59839862  0.12923283  0.72917109     1.37500
O2668       O  0.55084717  0.12401059  0.69002942    -0.58800
O2669       O  0.57350276  0.06646807  0.69860678    -0.57700
C2670       C  0.68119740  0.16218902  0.71718464     0.76100
O2671       O  0.57420984  0.06217883  0.74987853    -0.60000
O2672       O  0.60691992  0.18108533  0.69780610    -0.58500
O2673       O  0.58237212  0.11746379  0.78315983    -0.58500
O2674       O  0.67073764  0.17079829  0.74325758    -0.57600
O2675       O  0.69023114  0.12512691  0.77445536    -0.58800
C2676       C  0.66027957  0.05195288  0.67559385     0.73800
O2677       O  0.70485754  0.05150243  0.77470903    -0.60000
C2678       C  0.66187745  0.09458058  0.78754037     0.73800
C2679       C  0.71973045  0.16420156  0.71280224     0.76100
Cd2680     Cd  0.69417932  0.08866639  0.73191761     1.37500
O2681       O  0.68531129  0.04487333  0.68927790    -0.58800
O2682       O  0.73873065  0.16447311  0.73730696    -0.57700
C2683       C  0.70218727  0.02896971  0.75201711     0.76100
O2684       O  0.72016907  0.14318103  0.69014359    -0.60000
O2685       O  0.64097050  0.06438837  0.69244690    -0.58500
O2686       O  0.63844042  0.06509035  0.77002337    -0.58500
O2687       O  0.72749438  0.04556019  0.72988934    -0.57600
O2688       O  0.94482321  0.11229488  0.68738724    -0.58800
C2689       C  0.91730164  0.08042969  0.77751194     0.73800
O2690       O  0.93435004  0.00108757  0.74201829    -0.60000
C2691       C  0.93293743  0.08547054  0.66577408     0.73800
C2692       C  0.01720624  0.05642783  0.72671240     0.76100
Cd2693     Cd  0.94893235  0.06419931  0.72401894     1.37500
O2694       O  0.95412257  0.10249985  0.76898930    -0.58800
O2695       O  0.01094745  0.07728195  0.74704980    -0.57700
C2696       C  0.88730867  0.48378358  0.72325545     0.76100
O2697       O  0.99229249  0.04061303  0.70414879    -0.60000
O2698       O  0.89342466  0.05300172  0.75885139    -0.58500
O2699       O  0.93777791  0.05561424  0.67009056    -0.58500
O2700       O  0.88641372  0.00953357  0.72130114    -0.57600
C2701       C  0.71787138  0.21601782  0.91196127     0.85500
C2702       C  0.69007912  0.21751391  0.88644087    -0.54800
C2703       C  0.65523219  0.18440158  0.88050406     0.08400
C2704       C  0.65186848  0.14800139  0.89949503     0.19300
C2705       C  0.69041119  0.19862100  0.94116932    -0.55500
C2706       C  0.65668900  0.16117266  0.93510458     0.08500
C2707       C  0.72520853  0.18131071  0.90202882    -0.55000
C2708       C  0.69168286  0.14733552  0.89272859     0.09100
H2709       H  0.69793474  0.24457604  0.87385271     0.13600
H2710       H  0.62387120  0.11897109  0.89424218    -0.00700
H2711       H  0.69923519  0.21223479  0.96444270     0.13900
H2712       H  0.75516201  0.18489686  0.89928808     0.13700
C2713       C  0.70605780  0.47934623  0.90388244     0.85500
C2714       C  0.71270524  0.00995771  0.87442637    -0.54800
C2715       C  0.67964506  0.01284774  0.86997079     0.08400
C2716       C  0.63645113  0.47120171  0.88564881     0.19300
C2717       C  0.68362507  0.48737783  0.93056799    -0.55500
C2718       C  0.64550903  0.47954442  0.92148210     0.08500
C2719       C  0.67418795  0.43583010  0.89319820    -0.55000
C2720       C  0.63946585  0.43244148  0.88183477     0.09100
H2721       H  0.72738697  0.01100572  0.85223665     0.13600
H2722       H  0.60683051  0.46720647  0.87794682    -0.00700
H2723       H  0.69525757  0.49559795  0.95444200     0.13900
H2724       H  0.67953367  0.41043837  0.89280733     0.13700
C2725       C  0.70567579  0.20607167  0.55691507     0.85500
C2726       C  0.70968960  0.18229193  0.58455484    -0.54800
C2727       C  0.67750646  0.14714218  0.59263006     0.08400
C2728       C  0.63902251  0.14166724  0.57533462     0.19300
C2729       C  0.68491537  0.17545905  0.53041834    -0.55500
C2730       C  0.64836002  0.14339369  0.53947808     0.08500
C2731       C  0.67205789  0.21469562  0.56848604    -0.55000
C2732       C  0.63910904  0.18200251  0.58065059     0.09100
H2733       H  0.73736252  0.19379897  0.59744112     0.13600
H2734       H  0.61055772  0.11445706  0.58284479    -0.00700
H2735       H  0.69676820  0.17943214  0.50665265     0.13900
H2736       H  0.67524299  0.24459726  0.56916979     0.13700
C2737       C  0.71892384  0.48621245  0.55006187     0.85500
C2738       C  0.69315199  0.46012445  0.57730545    -0.54800
C2739       C  0.65644007  0.45448881  0.58033267     0.08400
C2740       C  0.65094382  0.48512080  0.56020964     0.19300
C2741       C  0.69083990  0.47224369  0.52070833    -0.55500
C2742       C  0.65584050  0.47388830  0.52543801     0.08500
C2743       C  0.72819733  0.02811519  0.55939673    -0.55000
C2744       C  0.69363506  0.02691454  0.56850272     0.09100
H2745       H  0.70574501  0.45005405  0.59536039     0.13600
H2746       H  0.62182679  0.48419316  0.56464927    -0.00700
H2747       H  0.70008062  0.46642902  0.49796264     0.13900
H2748       H  0.75753146  0.05527560  0.56234528     0.13700
C2749       C  0.98607434  0.25333468  0.55487660     0.85500
C2750       C  0.95506555  0.24983430  0.57919364    -0.54800
C2751       C  0.95369595  0.28283359  0.58708322     0.08400
C2752       C  0.98792230  0.32071765  0.57084713     0.19300
C2753       C  0.97966704  0.27443000  0.52657306    -0.55500
C2754       C  0.98291787  0.31092691  0.53475373     0.08500
C2755       C  0.52769492  0.28671052  0.56791778    -0.55000
C2756       C  0.52797221  0.32042634  0.57844545     0.09100
H2757       H  0.93449752  0.22164340  0.58976712     0.13600
H2758       H  0.98853043  0.34921653  0.57726594    -0.00700
H2759       H  0.97308502  0.26188130  0.50283724     0.13900
H2760       H  0.55420398  0.28330705  0.56975684     0.13700
C2761       C  0.74912736  0.24413621  0.55241464     0.85500
C2762       C  0.75097385  0.27053800  0.58015017    -0.54800
C2763       C  0.78245665  0.30684601  0.58243250     0.08400
C2764       C  0.81822908  0.31013901  0.56230008     0.19300
C2765       C  0.76512965  0.27240352  0.52275826    -0.55500
C2766       C  0.80351097  0.30581005  0.52765665     0.08500
C2767       C  0.78444356  0.23643792  0.55878185    -0.55000
C2768       C  0.81908025  0.26982877  0.56749738     0.09100
H2769       H  0.73104015  0.25840091  0.60023218     0.13600
H2770       H  0.84761963  0.33794006  0.56709904    -0.00700
H2771       H  0.74929505  0.26551955  0.50020670     0.13900
H2772       H  0.78122767  0.20653346  0.55990890     0.13700
C2773       C  0.98032030  0.20936943  0.55328413     0.85500
C2774       C  0.50129110  0.20859907  0.58458393    -0.54800
C2775       C  0.50660584  0.17771196  0.58939402     0.08400
C2776       C  0.97705610  0.14113190  0.56716849     0.19300
C2777       C  0.99713855  0.19367874  0.52668179    -0.55500
C2778       C  0.99173010  0.15558570  0.53289239     0.08500
C2779       C  0.93672288  0.17330059  0.55685222    -0.55000
C2780       C  0.93530526  0.13962845  0.56857036     0.09100
H2781       H  0.50683569  0.22924165  0.60411845     0.13600
H2782       H  0.97517279  0.11204422  0.57348708    -0.00700
H2783       H  0.00909365  0.20955509  0.50458087     0.13900
H2784       H  0.90959658  0.17567911  0.55491743     0.13700
C2785       C  0.98566570  0.21476140  0.90807528     0.85500
C2786       C  0.95534584  0.18786825  0.88302458    -0.54800
C2787       C  0.95185572  0.15230895  0.87723582     0.08400
C2788       C  0.98733270  0.14922875  0.89187716     0.19300
C2789       C  0.97849485  0.18618631  0.93629093    -0.55500
C2790       C  0.98217964  0.15297689  0.92789746     0.08500
C2791       C  0.52706766  0.22299419  0.89502337    -0.55000
C2792       C  0.52668557  0.18960899  0.88337499     0.09100
H2793       H  0.94240860  0.19984239  0.86676356     0.13600
H2794       H  0.98780018  0.12142242  0.88490222    -0.00700
H2795       H  0.97389124  0.19296586  0.96029636     0.13900
H2796       H  0.55343694  0.25296184  0.89256663     0.13700
C2797       C  0.98003118  0.25331291  0.90863904     0.85500
C2798       C  0.49988663  0.27469969  0.87841025    -0.54800
C2799       C  0.50271698  0.30962055  0.87160061     0.08400
C2800       C  0.97500580  0.31699240  0.89330947     0.19300
C2801       C  0.99669222  0.28668156  0.93463139    -0.55500
C2802       C  0.99033807  0.31868501  0.92786087     0.08500
C2803       C  0.93603706  0.24460539  0.90409637    -0.55000
C2804       C  0.93351144  0.27642216  0.89267380     0.09100
H2805       H  0.50652345  0.25925866  0.86019668     0.13600
H2806       H  0.97260552  0.34372579  0.88635969    -0.00700
H2807       H  0.00650001  0.28228601  0.95762565     0.13900
H2808       H  0.90965208  0.21445266  0.90494018     0.13700
C2809       C  0.75702165  0.25850924  0.90969808     0.85500
C2810       C  0.77599751  0.25708774  0.87758728    -0.54800
C2811       C  0.81124457  0.28876909  0.86980682     0.08400
C2812       C  0.81941482  0.32537669  0.89073908     0.19300
C2813       C  0.79213936  0.27527933  0.93373701    -0.55500
C2814       C  0.82408937  0.31255400  0.92465356     0.08500
C2815       C  0.74870664  0.29384118  0.90655479    -0.55000
C2816       C  0.77895235  0.32672434  0.89269472     0.09100
H2817       H  0.76266144  0.23098612  0.86230014     0.13600
H2818       H  0.84559410  0.35405448  0.88229949    -0.00700
H2819       H  0.78917268  0.26258090  0.95723885     0.13900
H2820       H  0.71924381  0.29097890  0.91056381     0.13700
C2821       C  0.75788260  0.48208102  0.55292581     0.85500
C2822       C  0.78241611  0.00577840  0.58405550    -0.54800
C2823       C  0.81710424  0.00809187  0.59255510     0.08400
C2824       C  0.82147811  0.47888162  0.57169395     0.19300
C2825       C  0.79094132  0.49675180  0.52742819    -0.55500
C2826       C  0.82363129  0.49286668  0.53650194     0.08500
C2827       C  0.74950608  0.43872187  0.56079455    -0.55000
C2828       C  0.78124635  0.43755821  0.57403321     0.09100
H2829       H  0.76989391  0.02020452  0.59822834     0.13600
H2830       H  0.84835734  0.47745330  0.57994587    -0.00700
H2831       H  0.78700269  0.50511309  0.50369742     0.13900
H2832       H  0.71959041  0.41196774  0.55978688     0.13700
C2833       C  0.75127674  0.48767677  0.90654308     0.85500
C2834       C  0.75246545  0.46273520  0.87881909    -0.54800
C2835       C  0.78402394  0.45809300  0.87536009     0.08400
C2836       C  0.82020263  0.49044700  0.89567843     0.19300
C2837       C  0.76852373  0.47688000  0.93600501    -0.55500
C2838       C  0.80680022  0.48220198  0.93107976     0.08500
C2839       C  0.78854595  0.01985890  0.87745566    -0.55000
C2840       C  0.82283832  0.01894818  0.87118528     0.09100
H2841       H  0.73330658  0.45710040  0.85835253     0.13600
H2842       H  0.84938785  0.49178475  0.89066069    -0.00700
H2843       H  0.75323175  0.46856894  0.95872492     0.13900
H2844       H  0.78802191  0.04712171  0.87114568     0.13700
C2845       C  0.94396253  0.36654260  0.98422757     0.85500
C2846       C  0.94841493  0.34540187  0.95420934    -0.54800
C2847       C  0.98280695  0.34188253  0.95360070     0.08400
C2848       C  0.50932117  0.36038127  0.98386605     0.19300
C2849       C  0.94701276  0.34286586  0.51241759    -0.55500
C2850       C  0.97975296  0.33793999  0.51169377     0.08500
C2851       C  0.98398470  0.40695229  0.98465812    -0.55000
C2852       C  0.51881209  0.40516502  0.98590336     0.09100
H2853       H  0.92568945  0.33336747  0.93558985     0.13600
H2854       H  0.53652963  0.35697271  0.98408640    -0.00700
H2855       H  0.92456640  0.33089456  0.53097793     0.13900
H2856       H  0.98432989  0.43501588  0.98173965     0.13700
C2857       C  0.52750210  0.09965516  0.97735951     0.85500
C2858       C  0.52268456  0.12275878  0.94938133    -0.54800
C2859       C  0.98898624  0.12753893  0.95088893     0.08400
C2860       C  0.96261132  0.10769589  0.98022794     0.19300
C2861       C  0.52573568  0.12164390  0.50698085    -0.55500
C2862       C  0.99338451  0.12790011  0.50816611     0.08500
C2863       C  0.98697008  0.05981078  0.97843311    -0.55000
C2864       C  0.95245698  0.06238622  0.97816836     0.09100
H2865       H  0.54418371  0.13471440  0.93011921     0.13600
H2866       H  0.93573587  0.11160317  0.98158217    -0.00700
H2867       H  0.54931416  0.13200422  0.52445262     0.13900
H2868       H  0.98663797  0.03176769  0.98131779     0.13700
C2869       C  0.60492244  0.06025587  0.98051286     0.85500
C2870       C  0.61384123  0.07827931  0.51421994    -0.54800
C2871       C  0.61894000  0.11574998  0.51619607     0.08400
C2872       C  0.60800898  0.13026799  0.98548129     0.19300
C2873       C  0.56490051  0.05890387  0.97206196    -0.55500
C2874       C  0.56543834  0.09510539  0.97637545     0.08500
C2875       C  0.63616808  0.09418549  0.95885645    -0.55000
C2876       C  0.63616506  0.12983079  0.96003824     0.09100
H2877       H  0.61949759  0.06450546  0.53456043     0.13600
H2878       H  0.60960852  0.15996971  0.98803412    -0.00700
H2879       H  0.53878874  0.03140021  0.96380213     0.13900
H2880       H  0.65634761  0.09061342  0.94327292     0.13700
C2881       C  0.60567103  0.01909786  0.97850070     0.85500
C2882       C  0.63635950  0.01725495  0.50118298    -0.54800
C2883       C  0.63329369  0.48059261  0.49943253     0.08400
C2884       C  0.60256746  0.45002725  0.97560397     0.19300
C2885       C  0.61612347  0.00955315  0.94572985    -0.55500
C2886       C  0.61367509  0.47480427  0.94399374     0.08500
C2887       C  0.56215893  0.48089342  0.98957990    -0.55000
C2888       C  0.56015759  0.44419980  0.98546884     0.09100
H2889       H  0.65715613  0.04215494  0.51604790     0.13600
H2890       H  0.60310498  0.42133516  0.97374060    -0.00700
H2891       H  0.62245027  0.02889119  0.92530375     0.13900
H2892       H  0.53787964  0.48437950  0.99924655     0.13700
C2893       C  0.86570589  0.40374843  0.97992991     0.85500
C2894       C  0.83287920  0.37226908  0.50168433    -0.54800
C2895       C  0.83056747  0.33590523  0.50341950     0.08400
C2896       C  0.86115874  0.33277444  0.98055988     0.19300
C2897       C  0.90506630  0.40519329  0.98971529    -0.55500
C2898       C  0.90470830  0.36917108  0.98675820     0.08500
C2899       C  0.85542528  0.38158548  0.94741797    -0.55000
C2900       C  0.85034526  0.34335258  0.94831704     0.09100
H2901       H  0.81142349  0.37790655  0.51337980     0.13600
H2902       H  0.85938850  0.30287729  0.98103069    -0.00700
H2903       H  0.93132173  0.43329904  0.99664656     0.13900
H2904       H  0.84890778  0.39342072  0.92627339     0.13700
C2905       C  0.86639258  0.44577071  0.98082651     0.85500
C2906       C  0.85584202  0.45703030  0.51324766    -0.54800
C2907       C  0.85131360  0.49035789  0.51280073     0.08400
C2908       C  0.86833015  0.01770452  0.98013672     0.19300
C2909       C  0.83500098  0.44539199  0.95852320    -0.55500
C2910       C  0.83371774  0.47988907  0.95630569     0.08500
C2911       C  0.90601595  0.48334690  0.97122119    -0.55000
C2912       C  0.91150651  0.02339179  0.97508054     0.09100
H2913       H  0.84827175  0.43801781  0.53409593     0.13600
H2914       H  0.86771359  0.04641660  0.98097845    -0.00700
H2915       H  0.81382002  0.41855453  0.94656596     0.13900
H2916       H  0.93136127  0.48024546  0.96379347     0.13700
C2917       C  0.62836535  0.68881037  0.36292849     0.85500
C2918       C  0.60697933  0.65511514  0.33958857    -0.54800
C2919       C  0.58232329  0.66028550  0.31970804     0.08400
C2920       C  0.57406046  0.69489726  0.32973879     0.19300
C2921       C  0.64427815  0.72994328  0.34356157    -0.55500
C2922       C  0.61614633  0.73357252  0.32568552     0.08500
C2923       C  0.59471349  0.68670484  0.38345890    -0.55000
C2924       C  0.56514974  0.68859342  0.36670274     0.09100
H2925       H  0.61824529  0.63449161  0.33449384     0.13600
H2926       H  0.54977238  0.69554898  0.31568078    -0.00700
H2927       H  0.67514435  0.75453777  0.34265182     0.13900
H2928       H  0.59446142  0.68407950  0.40912280     0.13700
C2929       C  0.54938944  0.68618658  0.10408083     0.85500
C2930       C  0.55305762  0.65646005  0.12647636    -0.54800
C2931       C  0.59245293  0.67030599  0.13602306     0.08400
C2932       C  0.62379357  0.71070858  0.12217929     0.19300
C2933       C  0.57082691  0.72691003  0.12404365    -0.55500
C2934       C  0.60964400  0.74024689  0.13310822     0.08500
C2935       C  0.57873092  0.69244867  0.07693252    -0.55000
C2936       C  0.61647740  0.70258953  0.08664510     0.09100
H2937       H  0.52711865  0.63126384  0.13769987     0.13600
H2938       H  0.65541602  0.72033727  0.12937038    -0.00700
H2939       H  0.55591816  0.74194554  0.13433956     0.13900
H2940       H  0.56956885  0.68557773  0.05241725     0.13700
C2941       C  0.62943685  0.91785883  0.09969205     0.85500
C2942       C  0.60680643  0.93002073  0.12173361    -0.54800
C2943       C  0.57954614  0.89941042  0.13998769     0.08400
C2944       C  0.57476973  0.85742860  0.13250019     0.19300
C2945       C  0.64570682  0.89505800  0.12118692    -0.55500
C2946       C  0.61769036  0.86364643  0.13859758     0.08500
C2947       C  0.59686876  0.88496949  0.07886970    -0.55000
C2948       C  0.56771178  0.85346184  0.09567691     0.09100
H2949       H  0.61671944  0.96172550  0.12626289     0.13600
H2950       H  0.55037944  0.83214156  0.14614635    -0.00700
H2951       H  0.67669183  0.90237602  0.12426106     0.13900
H2952       H  0.59608051  0.88701544  0.05314664     0.13700
C2953       C  0.77934843  0.84114165  0.10042019     0.85500
C2954       C  0.81368059  0.86687072  0.12272031    -0.54800
C2955       C  0.80772750  0.89390366  0.13982190     0.08400
C2956       C  0.77073683  0.89723123  0.12898336     0.19300
C2957       C  0.73974598  0.82537528  0.12165764    -0.55500
C2958       C  0.73402295  0.85394198  0.13658515     0.08500
C2959       C  0.77788591  0.87119915  0.07773248    -0.55000
C2960       C  0.77659067  0.90230376  0.09193132     0.09100
H2961       H  0.83560276  0.85786363  0.12927848     0.13600
H2962       H  0.76886442  0.92232663  0.14066806    -0.00700
H2963       H  0.71871706  0.79416223  0.12736751     0.13900
H2964       H  0.77914893  0.86888677  0.05237663     0.13700
C2965       C  0.65115125  0.81476493  0.20918555     0.85500
C2966       C  0.62829538  0.77018190  0.18934362    -0.54800
C2967       C  0.63143293  0.77532455  0.15664916     0.08400
C2968       C  0.65337700  0.81943817  0.14498607     0.19300
C2969       C  0.69571886  0.83889720  0.19222206    -0.55500
C2970       C  0.69660828  0.84066492  0.15898548     0.08500
C2971       C  0.63089187  0.83909633  0.19287720    -0.55000
C2972       C  0.63093787  0.83966886  0.15985628     0.09100
H2973       H  0.63765579  0.78743899  0.20784305     0.13600
H2974       H  0.65379873  0.82098094  0.11859790    -0.00700
H2975       H  0.72250854  0.84939482  0.20650228     0.13900
H2976       H  0.61852507  0.85441746  0.20633649     0.13700
C2977       C  0.77831140  0.90925841  0.36542163     0.85500
C2978       C  0.81130835  0.91333659  0.34293677    -0.54800
C2979       C  0.80140365  0.87753656  0.32840969     0.08400
C2980       C  0.76141101  0.84137378  0.33879970     0.19300
C2981       C  0.73919984  0.88996220  0.34417467    -0.55500
C2982       C  0.72954499  0.85408282  0.33011708     0.08500
C2983       C  0.77201773  0.87681736  0.38899711    -0.55000
C2984       C  0.76662103  0.84286129  0.37519522     0.09100
H2985       H  0.83528134  0.94239551  0.33451402     0.13600
H2986       H  0.75530751  0.81225072  0.32802556    -0.00700
H2987       H  0.72185942  0.90473957  0.33920936     0.13900
H2988       H  0.77440386  0.88076365  0.41447388     0.13700
C2989       C  0.54669144  0.83910022  0.35630245     0.85500
C2990       C  0.53785634  0.85892352  0.32873890    -0.54800
C2991       C  0.57225398  0.88638830  0.31394380     0.08400
C2992       C  0.61183300  0.89170749  0.32642002     0.19300
C2993       C  0.57353227  0.82220024  0.34121115    -0.55500
C2994       C  0.60656221  0.84935643  0.32462030     0.08500
C2995       C  0.57647965  0.87439094  0.37741844    -0.55000
C2996       C  0.61007305  0.90201659  0.36139267     0.09100
H2997       H  0.50766543  0.85111263  0.32089016     0.13600
H2998       H  0.63911073  0.91480039  0.31358890    -0.00700
H2999       H  0.56747783  0.79142073  0.34169452     0.13900
H3000       H  0.57147040  0.87751557  0.40241337     0.13700
C3001       C  0.65423763  0.81667977  0.25387362     0.85500
C3002       C  0.69919910  0.83722022  0.27338251    -0.54800
C3003       C  0.69452292  0.83399404  0.30620293     0.08400
C3004       C  0.65069761  0.81336773  0.31813887     0.19300
C3005       C  0.62806863  0.77216964  0.27035385    -0.55500
C3006       C  0.62876471  0.77081321  0.30364668     0.08500
C3007       C  0.63180246  0.83794045  0.27100588    -0.55000
C3008       C  0.63085136  0.83642114  0.30390786     0.09100
H3009       H  0.68173614  0.82868519  0.25486403     0.13600
H3010       H  0.64926973  0.81254422  0.34453775    -0.00700
H3011       H  0.61191520  0.74593891  0.25547691     0.13900
H3012       H  0.61691987  0.85113095  0.25809548     0.13700
C3013       C  0.91708129  0.61993734  0.35663287     0.85500
C3014       C  0.92157782  0.59050995  0.33578329    -0.54800
C3015       C  0.88649881  0.56339129  0.32082133     0.08400
C3016       C  0.84880344  0.56545274  0.33144966     0.19300
C3017       C  0.89536045  0.63682518  0.33469757    -0.55500
C3018       C  0.85915815  0.60892538  0.32204992     0.08500
C3019       C  0.88601581  0.59350126  0.38129451    -0.55000
C3020       C  0.85095363  0.56409190  0.36858250     0.09100
H3021       H  0.95134775  0.59598776  0.32882885     0.13600
H3022       H  0.81999226  0.54109082  0.32122470    -0.00700
H3023       H  0.90823257  0.66805934  0.32743617     0.13900
H3024       H  0.89230808  0.59590094  0.40665569     0.13700
C3025       C  0.68585194  0.62039211  0.10265114     0.85500
C3026       C  0.65393163  0.59148831  0.12577539    -0.54800
C3027       C  0.66200245  0.56328116  0.13837970     0.08400
C3028       C  0.70064509  0.56485507  0.12450950     0.19300
C3029       C  0.72720312  0.63651231  0.12143571    -0.55500
C3030       C  0.73603496  0.60858090  0.13333488     0.08500
C3031       C  0.68733666  0.59247565  0.07672086    -0.55000
C3032       C  0.69310503  0.56211035  0.08783939     0.09100
H3033       H  0.63130923  0.59773842  0.13555832     0.13600
H3034       H  0.70574401  0.54035795  0.13327480    -0.00700
H3035       H  0.74738105  0.66764698  0.12801701     0.13900
H3036       H  0.68372628  0.59616894  0.05168669     0.13700
C3037       C  0.91776660  0.77737422  0.10162478     0.85500
C3038       C  0.92134508  0.81079320  0.12312124    -0.54800
C3039       C  0.88523957  0.80216845  0.13642079     0.08400
C3040       C  0.84834210  0.76279317  0.12445721     0.19300
C3041       C  0.89504131  0.73822677  0.12269678    -0.55500
C3042       C  0.85807591  0.72905647  0.13369184     0.08500
C3043       C  0.88716292  0.77298456  0.07610121    -0.55000
C3044       C  0.85189305  0.76779521  0.08807947     0.09100
H3045       H  0.95037519  0.83373079  0.13268907     0.13600
H3046       H  0.81908116  0.75790401  0.13396921    -0.00700
H3047       H  0.90828187  0.72081614  0.13157248     0.13900
H3048       H  0.89317463  0.77496749  0.05085489     0.13700
C3049       C  0.81841629  0.65031371  0.20662565     0.85500
C3050       C  0.83710540  0.69578739  0.18847172    -0.54800
C3051       C  0.83500995  0.69257888  0.15564889     0.08400
C3052       C  0.81776060  0.64928077  0.14226215     0.19300
C3053       C  0.77520596  0.62201861  0.18834570    -0.55500
C3054       C  0.77448831  0.62295907  0.15522958     0.08500
C3055       C  0.84344273  0.63171046  0.18969731    -0.55000
C3056       C  0.84368344  0.63245070  0.15669293     0.09100
H3057       H  0.82790980  0.67747122  0.20627187     0.13600
H3058       H  0.81814586  0.64905749  0.11584790    -0.00700
H3059       H  0.74807999  0.60662596  0.20156089     0.13900
H3060       H  0.85742555  0.61762336  0.20272154     0.13700
C3061       C  0.68191056  0.54614317  0.35350396     0.85500
C3062       C  0.65133467  0.54762626  0.33057038    -0.54800
C3063       C  0.66330161  0.58627162  0.31992812     0.08400
C3064       C  0.70328672  0.61955523  0.33545166     0.19300
C3065       C  0.72285059  0.56909842  0.33438173    -0.55500
C3066       C  0.73575788  0.60769470  0.32553877     0.08500
C3067       C  0.68570267  0.57437600  0.38066807    -0.55000
C3068       C  0.69463379  0.61177786  0.37146741     0.09100
H3069       H  0.62776106  0.52054350  0.31906828     0.13600
H3070       H  0.71147978  0.65083261  0.32865537    -0.00700
H3071       H  0.73807920  0.55426919  0.32405976     0.13900
H3072       H  0.68013097  0.56478347  0.40521789     0.13700
C3073       C  0.84601028  0.77496413  0.35774616     0.85500
C3074       C  0.87722089  0.80939488  0.33818646    -0.54800
C3075       C  0.90377353  0.80055589  0.32324167     0.08400
C3076       C  0.90072831  0.76055792  0.33447438     0.19300
C3077       C  0.82934814  0.73674844  0.33544341    -0.55500
C3078       C  0.85691006  0.72756923  0.32377104     0.08500
C3079       C  0.87120785  0.76946571  0.38326555    -0.55000
C3080       C  0.90155095  0.76477266  0.37152448     0.09100
H3081       H  0.87273898  0.83436139  0.33151952     0.13600
H3082       H  0.92513339  0.75569945  0.32505732    -0.00700
H3083       H  0.79830312  0.71930108  0.32724091     0.13900
H3084       H  0.86851551  0.77371658  0.40844671     0.13700
C3085       C  0.81489816  0.64617032  0.25129513     0.85500
C3086       C  0.76978858  0.62645967  0.27037926    -0.54800
C3087       C  0.77310856  0.62923367  0.30316730     0.08400
C3088       C  0.81710645  0.64717858  0.31562326     0.19300
C3089       C  0.84204045  0.69002351  0.26872431    -0.55500
C3090       C  0.84225248  0.69016143  0.30183000     0.08500
C3091       C  0.83548356  0.62260442  0.26799348    -0.55000
C3092       C  0.83511532  0.62228536  0.30103724     0.09100
H3093       H  0.78762731  0.63471856  0.25215371     0.13600
H3094       H  0.81813923  0.64737813  0.34202582    -0.00700
H3095       H  0.85677029  0.71758701  0.25508561     0.13900
H3096       H  0.84984006  0.60920884  0.25462344     0.13700
C3097       C  0.84550167  0.54901714  0.10425142     0.85500
C3098       C  0.87610700  0.54681955  0.12543740    -0.54800
C3099       C  0.90407795  0.58354145  0.13764543     0.08400
C3100       C  0.90051474  0.61948175  0.12569166     0.19300
C3101       C  0.82900471  0.57172693  0.12493889    -0.55500
C3102       C  0.85705166  0.60875044  0.13574855     0.08500
C3103       C  0.87086422  0.57831860  0.07799471    -0.55000
C3104       C  0.90088372  0.61414970  0.08904390     0.09100
H3105       H  0.87194588  0.51814098  0.13400006     0.13600
H3106       H  0.92485648  0.64923075  0.13453958    -0.00700
H3107       H  0.79813408  0.55897503  0.13315878     0.13900
H3108       H  0.86843586  0.57011669  0.05306667     0.13700
O3109       O  0.78927849  0.89165982  0.19323936    -0.58800
C3110       C  0.80979295  0.87808010  0.29570287     0.73800
O3111       O  0.83655355  0.82931146  0.23651106    -0.60000
C3112       C  0.81481930  0.89286563  0.17336999     0.73800
C3113       C  0.87054143  0.94694525  0.23795092     0.76100
Cd3114     Cd  0.81718619  0.87311902  0.23459358     1.29100
O3115       O  0.78278572  0.87421145  0.27591792    -0.58800
O3116       O  0.83332826  0.93666568  0.23895986    -0.57700
C3117       C  0.80270131  0.79730996  0.23465914     0.76100
O3118       O  0.88241246  0.92112791  0.23873076    -0.60000
O3119       O  0.84235682  0.88036586  0.28634390    -0.58500
O3120       O  0.84272516  0.88659513  0.18303655    -0.58500
O3121       O  0.77079985  0.79959178  0.23099864    -0.57600
O3122       O  0.89747853  0.78604562  0.18635395    -0.58800
C3123       C  0.90655703  0.80837216  0.28953117     0.73800
O3124       O  0.92887036  0.87723524  0.22978923    -0.60000
C3125       C  0.88639861  0.80709195  0.16987346     0.73800
C3126       C  0.80372765  0.76056336  0.23648839     0.76100
Cd3127     Cd  0.88309036  0.80465176  0.23078969     1.37500
O3128       O  0.91173977  0.78520432  0.27034582    -0.58800
O3129       O  0.81470953  0.75163750  0.21106361    -0.57700
C3130       C  0.95729965  0.86882462  0.22627461     0.76100
O3131       O  0.82042144  0.75810507  0.26154718    -0.60000
O3132       O  0.89572324  0.83296484  0.27895881    -0.58500
O3133       O  0.87375356  0.82893783  0.18293747    -0.58500
O3134       O  0.94864942  0.83204091  0.22304336    -0.57600
O3135       O  0.58117661  0.89349276  0.19484253    -0.58800
C3136       C  0.57281517  0.90497040  0.28529040     0.73800
O3137       O  0.63228348  0.00401417  0.24444772    -0.60000
C3138       C  0.57725138  0.91206918  0.17151440     0.73800
C3139       C  0.49908861  0.89673235  0.22757655     0.76100
Cd3140     Cd  0.58086111  0.93905500  0.23038694     1.37500
O3141       O  0.58536792  0.89493162  0.26106043    -0.58800
O3142       O  0.52241619  0.88237633  0.22952847    -0.57700
C3143       C  0.66164787  0.99719202  0.24407606     0.76100
O3144       O  0.51413607  0.93520655  0.22776342    -0.60000
O3145       O  0.56350493  0.93255520  0.28397262    -0.58500
O3146       O  0.57653581  0.94472176  0.17621232    -0.58500
O3147       O  0.65429199  0.96271230  0.23458460    -0.57600
O3148       O  0.61127711  0.68930091  0.27081080    -0.58800
C3149       C  0.60209113  0.66299704  0.16707194     0.73800
O3150       O  0.65733387  0.63476551  0.22185921    -0.60000
C3151       C  0.59432196  0.65769060  0.28766550     0.73800
C3152       C  0.54151996  0.62231856  0.22780090     0.76100
Cd3153     Cd  0.61718216  0.65785370  0.22750912     1.37500
O3154       O  0.61865954  0.69299616  0.18604057    -0.58800
O3155       O  0.56053029  0.66088122  0.22572294    -0.57700
C3156       C  0.68973671  0.66853628  0.21955258     0.76100
O3157       O  0.55951874  0.60157152  0.22685640    -0.60000
O3158       O  0.59483777  0.62830602  0.17602165    -0.58500
O3159       O  0.59386472  0.62599431  0.27761047    -0.58500
O3160       O  0.68968933  0.70125261  0.22509935    -0.57600
O3161       O  0.68728663  0.62332970  0.27372262    -0.58800
C3162       C  0.65444876  0.55452819  0.17211109     0.73800
O3163       O  0.70211935  0.55040378  0.26917756    -0.60000
C3164       C  0.65853530  0.59250819  0.28629634     0.73800
C3165       C  0.72450345  0.66669971  0.21041114     0.76100
Cd3166     Cd  0.69034952  0.58863585  0.22858406     1.37500
O3167       O  0.67667421  0.54381316  0.18594901    -0.58800
O3168       O  0.74400790  0.66287252  0.23277250    -0.57700
C3169       C  0.69901870  0.52784945  0.24643243     0.76100
O3170       O  0.71708762  0.64352566  0.18720157    -0.60000
O3171       O  0.63614212  0.56811748  0.18899673    -0.58500
O3172       O  0.63404704  0.56440391  0.26795026    -0.58500
O3173       O  0.72229633  0.54456959  0.22324165    -0.57600
O3174       O  0.91389261  0.60198158  0.19151976    -0.58800
C3175       C  0.89299995  0.55592026  0.28840700     0.73800
O3176       O  0.92661897  0.50271008  0.22747219    -0.60000
C3177       C  0.91807471  0.58243250  0.16880315     0.73800
C3178       C  0.00027677  0.60157910  0.23103037     0.76100
Cd3179     Cd  0.92328518  0.56094229  0.22858828     1.37500
O3180       O  0.87621966  0.56321623  0.26533734    -0.58800
O3181       O  0.98143392  0.62087057  0.23456006    -0.57700
C3182       C  0.89845012  0.98743499  0.23377896     0.76100
O3183       O  0.98195910  0.56347130  0.23052727    -0.60000
O3184       O  0.92119560  0.54876561  0.28257835    -0.58500
O3185       O  0.92847107  0.55656759  0.17466659    -0.58500
O3186       O  0.86995809  0.50272347  0.21648114    -0.57600
C3187       C  0.72086873  0.70943860  0.41278275     0.85500
C3188       C  0.69601438  0.71199778  0.38478272    -0.54800
C3189       C  0.65911809  0.68176135  0.38072831     0.08400
C3190       C  0.65284530  0.64433940  0.39925969     0.19300
C3191       C  0.69146340  0.69422324  0.44099263    -0.55500
C3192       C  0.65672108  0.65800680  0.43432445     0.08500
C3193       C  0.72582248  0.67282140  0.40433576    -0.55000
C3194       C  0.69144210  0.64046556  0.39363290     0.09100
H3195       H  0.70824695  0.73680315  0.36843041     0.13600
H3196       H  0.62386670  0.61646691  0.39357916    -0.00700
H3197       H  0.69934409  0.70838084  0.46413074     0.13900
H3198       H  0.75496026  0.67432336  0.40264807     0.13700
C3199       C  0.71156354  0.97982328  0.39790166     0.85500
C3200       C  0.70747065  0.50534400  0.37637054    -0.54800
C3201       C  0.67376172  0.50499447  0.36721060     0.08400
C3202       C  0.64205410  0.97686748  0.38581416     0.19300
C3203       C  0.68935421  0.98335282  0.42763471    -0.55500
C3204       C  0.65185804  0.97920231  0.42118975     0.08500
C3205       C  0.67848636  0.93992711  0.38188473    -0.55000
C3206       C  0.64292412  0.93837490  0.37605879     0.09100
H3207       H  0.73491652  0.52314416  0.36392481     0.13600
H3208       H  0.61303789  0.97574782  0.38037207    -0.00700
H3209       H  0.70182020  0.98814816  0.45121411     0.13900
H3210       H  0.68137555  0.91460167  0.37401657     0.13700
C3211       C  0.70955666  0.70957563  0.05105266     0.85500
C3212       C  0.70981319  0.68857186  0.08225455    -0.54800
C3213       C  0.67710652  0.65386013  0.08995265     0.08400
C3214       C  0.64044885  0.64913605  0.07002397     0.19300
C3215       C  0.68962856  0.67498380  0.02651589    -0.55500
C3216       C  0.65131510  0.64505940  0.03594800     0.08500
C3217       C  0.67624235  0.72070452  0.05545528    -0.55000
C3218       C  0.64206677  0.69100626  0.06841154     0.09100
H3219       H  0.73592583  0.70105273  0.09730915     0.13600
H3220       H  0.61076824  0.62409623  0.07816399    -0.00700
H3221       H  0.70288608  0.67489217  0.00392884     0.13900
H3222       H  0.68120512  0.75113689  0.05248056     0.13700
C3223       C  0.72284620  0.98704125  0.05098889     0.85500
C3224       C  0.69689455  0.95960561  0.07771970    -0.54800
C3225       C  0.66035725  0.95434355  0.08133364     0.08400
C3226       C  0.65467998  0.98511609  0.06171458     0.19300
C3227       C  0.69486269  0.97371039  0.02161540    -0.55500
C3228       C  0.65968151  0.97492959  0.02674332     0.08500
C3229       C  0.72457626  0.52850248  0.05812266    -0.55000
C3230       C  0.69017105  0.52823784  0.06688164     0.09100
H3231       H  0.70861690  0.94675555  0.09405676     0.13600
H3232       H  0.62560504  0.98418126  0.06639383    -0.00700
H3233       H  0.70422030  0.96841055  0.99880718     0.13900
H3234       H  0.75403629  0.55559816  0.06059778     0.13700
C3235       C  0.98942754  0.75419177  0.05545454     0.85500
C3236       C  0.95922372  0.75145947  0.08025774    -0.54800
C3237       C  0.95772571  0.78453574  0.08755197     0.08400
C3238       C  0.99223324  0.82223104  0.07106992     0.19300
C3239       C  0.98275677  0.77543221  0.02711687    -0.55500
C3240       C  0.98651274  0.81231145  0.03506536     0.08500
C3241       C  0.53132057  0.78660081  0.06888613    -0.55000
C3242       C  0.53177425  0.82059913  0.07920971     0.09100
H3243       H  0.93945869  0.72366048  0.09169801     0.13600
H3244       H  0.99336719  0.85096763  0.07753467    -0.00700
H3245       H  0.97556287  0.76260409  0.00350851     0.13900
H3246       H  0.55741914  0.78261533  0.07165468     0.13700
C3247       C  0.75365629  0.74776856  0.04958009     0.85500
C3248       C  0.75292608  0.77437379  0.07661548    -0.54800
C3249       C  0.78570267  0.80925338  0.08272876     0.08400
C3250       C  0.82226779  0.81307801  0.06341273     0.19300
C3251       C  0.77214759  0.77680253  0.02107816    -0.55500
C3252       C  0.80977216  0.80996275  0.02800623     0.08500
C3253       C  0.78783844  0.73941364  0.05905777    -0.55000
C3254       C  0.82233483  0.77264155  0.06864904     0.09100
H3255       H  0.72670297  0.76496229  0.09085381     0.13600
H3256       H  0.85146496  0.84054734  0.06934868    -0.00700
H3257       H  0.75787161  0.77108633  0.99791660     0.13900
H3258       H  0.78364029  0.70920406  0.06126043     0.13700
C3259       C  0.98282443  0.70963913  0.05400453     0.85500
C3260       C  0.50310333  0.70654285  0.08492470    -0.54800
C3261       C  0.50669511  0.67433542  0.09071798     0.08400
C3262       C  0.97704612  0.64011123  0.06754221     0.19300
C3263       C  0.99815278  0.69307522  0.02706835    -0.55500
C3264       C  0.99131599  0.65444243  0.03302970     0.08500
C3265       C  0.93878779  0.67471490  0.05763512    -0.55000
C3266       C  0.93585862  0.64009660  0.06858233     0.09100
H3267       H  0.51062194  0.72877357  0.10325083     0.13600
H3268       H  0.97366567  0.61026037  0.07338974    -0.00700
H3269       H  0.00900098  0.70828817  0.00451114     0.13900
H3270       H  0.91237016  0.67834019  0.05579787     0.13700
C3271       C  0.98761163  0.71151774  0.40649204     0.85500
C3272       C  0.95842446  0.68602929  0.38005364    -0.54800
C3273       C  0.95639652  0.65145764  0.37206790     0.08400
C3274       C  0.98870510  0.64583312  0.38976842     0.19300
C3275       C  0.97766880  0.68184204  0.43405419    -0.55500
C3276       C  0.98040895  0.64830095  0.42580958     0.08500
C3277       C  0.52931880  0.71876074  0.39540769    -0.55000
C3278       C  0.52913288  0.68538174  0.38379697     0.09100
H3279       H  0.93982835  0.69530218  0.36801465     0.13600
H3280       H  0.98900679  0.61792604  0.38288230    -0.00700
H3281       H  0.97308663  0.68862709  0.45815322     0.13900
H3282       H  0.55610919  0.74856915  0.39406454     0.13700
C3283       C  0.98281488  0.75047924  0.40864609     0.85500
C3284       C  0.50447478  0.77287316  0.37897723    -0.54800
C3285       C  0.50821079  0.80848436  0.37366850     0.08400
C3286       C  0.97788985  0.81453127  0.39431325     0.19300
C3287       C  0.99848913  0.78304817  0.43556555    -0.55500
C3288       C  0.99225304  0.81536794  0.42905703     0.08500
C3289       C  0.93903998  0.74195126  0.40409254    -0.55000
C3290       C  0.93668179  0.77351602  0.39224240     0.09100
H3291       H  0.51158818  0.75837876  0.36012725     0.13600
H3292       H  0.97550077  0.84133258  0.38757778    -0.00700
H3293       H  0.00827815  0.77826806  0.45842574     0.13900
H3294       H  0.91247753  0.71195565  0.40559828     0.13700
C3295       C  0.76044421  0.75164948  0.41190976     0.85500
C3296       C  0.78081969  0.74980126  0.38106324    -0.54800
C3297       C  0.81376113  0.78291839  0.37151120     0.08400
C3298       C  0.82045250  0.81957150  0.39140971     0.19300
C3299       C  0.79571484  0.77140435  0.43597910    -0.55500
C3300       C  0.82633305  0.80928866  0.42587816     0.08500
C3301       C  0.74998142  0.78521938  0.40757494    -0.55000
C3302       C  0.77877193  0.81770095  0.39277414     0.09100
H3303       H  0.77019978  0.72228945  0.36795758     0.13600
H3304       H  0.84527374  0.84862124  0.38213548    -0.00700
H3305       H  0.79393655  0.75978662  0.45971098     0.13900
H3306       H  0.71982970  0.78086453  0.41124131     0.13700
C3307       C  0.76222747  0.98409703  0.05350820     0.85500
C3308       C  0.77922788  0.50614316  0.08268676    -0.54800
C3309       C  0.81382960  0.50835487  0.09119878     0.08400
C3310       C  0.82561228  0.98047153  0.07153296     0.19300
C3311       C  0.79563625  0.00089762  0.02842486    -0.55500
C3312       C  0.82821842  0.99652691  0.03659492     0.08500
C3313       C  0.75415397  0.94052696  0.05903760    -0.55000
C3314       C  0.78524160  0.93883464  0.07264681     0.09100
H3315       H  0.76725445  0.52152087  0.09616960     0.13600
H3316       H  0.85243299  0.97864255  0.07931048    -0.00700
H3317       H  0.79151633  0.01001213  0.00509443     0.13900
H3318       H  0.72434960  0.91374826  0.05699155     0.13700
C3319       C  0.75722505  0.98694308  0.40095450     0.85500
C3320       C  0.75308769  0.94711163  0.39201887    -0.54800
C3321       C  0.78592306  0.94713932  0.38207972     0.08400
C3322       C  0.82521904  0.98656058  0.39076721     0.19300
C3323       C  0.78324610  0.99600014  0.43145417    -0.55500
C3324       C  0.81912901  0.99530786  0.42663771     0.08500
C3325       C  0.78678143  0.53044355  0.39809160    -0.55000
C3326       C  0.82113190  0.53086846  0.38886636     0.09100
H3327       H  0.72832615  0.91855638  0.40044091     0.13600
H3328       H  0.85318664  0.98515639  0.38654978    -0.00700
H3329       H  0.77207059  0.99756602  0.45466644     0.13900
H3330       H  0.78378404  0.55719133  0.39624106     0.13700
C3331       C  0.94816072  0.86761151  0.48314931     0.85500
C3332       C  0.95183704  0.84429924  0.45431786    -0.54800
C3333       C  0.98582700  0.84006657  0.45427419     0.08400
C3334       C  0.51344363  0.85982388  0.48371158     0.19300
C3335       C  0.95156294  0.84573827  0.01196764    -0.55500
C3336       C  0.98392448  0.83989534  0.01174958     0.08500
C3337       C  0.98842334  0.90759317  0.48219284    -0.55000
C3338       C  0.52335954  0.90507504  0.48389832     0.09100
H3339       H  0.92879418  0.83138079  0.43595642     0.13600
H3340       H  0.54052775  0.85620577  0.48420115    -0.00700
H3341       H  0.92911404  0.83460920  0.03056354     0.13900
H3342       H  0.98881363  0.93545270  0.47788061     0.13700
C3343       C  0.52448730  0.59664361  0.47739907     0.85500
C3344       C  0.51928120  0.61840308  0.44886777    -0.54800
C3345       C  0.98639313  0.62345865  0.45003093     0.08400
C3346       C  0.96018404  0.60509282  0.48003652     0.19300
C3347       C  0.52394787  0.61974332  0.00631332    -0.55500
C3348       C  0.99149306  0.62635034  0.00794566     0.08500
C3349       C  0.98387678  0.55679426  0.47958301    -0.55000
C3350       C  0.94916439  0.55931226  0.47875808     0.09100
H3351       H  0.54050042  0.62946481  0.42937884     0.13600
H3352       H  0.93357973  0.60946668  0.48107573    -0.00700
H3353       H  0.54798661  0.63136777  0.02379021     0.13900
H3354       H  0.98331036  0.52865118  0.48270405     0.13700
C3355       C  0.60183817  0.55851204  0.48029059     0.85500
C3356       C  0.61287473  0.57825123  0.01367607    -0.54800
C3357       C  0.61953412  0.61637627  0.01449699     0.08400
C3358       C  0.60641044  0.62899954  0.48385327     0.19300
C3359       C  0.56204633  0.55710725  0.47235093    -0.55500
C3360       C  0.56296055  0.59322189  0.47618863     0.08500
C3361       C  0.63278705  0.59095029  0.45771528    -0.55000
C3362       C  0.63368626  0.62696823  0.45842951     0.09100
H3363       H  0.61909158  0.56497344  0.03405411     0.13600
H3364       H  0.60840699  0.65893719  0.48578068    -0.00700
H3365       H  0.53566038  0.52944637  0.46471324     0.13900
H3366       H  0.65281839  0.58635047  0.44248006     0.13700
C3367       C  0.60110665  0.51732560  0.47847856     0.85500
C3368       C  0.63410149  0.51679120  0.99932723    -0.54800
C3369       C  0.63663164  0.98169409  0.00121492     0.08400
C3370       C  0.60819754  0.95152604  0.47574059     0.19300
C3371       C  0.60763567  0.50631362  0.44499546    -0.55500
C3372       C  0.62236411  0.97775645  0.44502759     0.08500
C3373       C  0.56581858  0.98122093  0.48695565    -0.55000
C3374       C  0.56465249  0.94472879  0.48324932     0.09100
H3375       H  0.65593290  0.54214162  0.01337520     0.13600
H3376       H  0.60954400  0.92323260  0.47416503    -0.00700
H3377       H  0.61319941  0.52547731  0.42446431     0.13900
H3378       H  0.54083338  0.98413458  0.49569407     0.13700
C3379       C  0.86868009  0.90551791  0.47742400     0.85500
C3380       C  0.83865819  0.87606747  0.00163287    -0.54800
C3381       C  0.83753086  0.84035938  0.00450644     0.08400
C3382       C  0.86542908  0.83472754  0.48054446     0.19300
C3383       C  0.90930880  0.90755345  0.48553484    -0.55500
C3384       C  0.90910500  0.87131853  0.48432968     0.08500
C3385       C  0.85535628  0.88021884  0.44623952    -0.55000
C3386       C  0.85157879  0.84238435  0.44854342     0.09100
H3387       H  0.81628850  0.88067716  0.01307462     0.13600
H3388       H  0.86374083  0.80491067  0.48204366    -0.00700
H3389       H  0.93604984  0.93582852  0.49116218     0.13900
H3390       H  0.84651355  0.88962294  0.42497456     0.13700
C3391       C  0.86923342  0.94838652  0.47787281     0.85500
C3392       C  0.85699230  0.95882602  0.01045256    -0.54800
C3393       C  0.85358168  0.99263589  0.01119487     0.08400
C3394       C  0.86372662  0.51311569  0.48064513     0.19300
C3395       C  0.84140436  0.95215683  0.45345858    -0.55500
C3396       C  0.84140831  0.98786159  0.45311176     0.08500
C3397       C  0.90991440  0.98621369  0.47108570    -0.55000
C3398       C  0.90756544  0.51992501  0.47484711     0.09100
H3399       H  0.84963700  0.93997288  0.03131733     0.13600
H3400       H  0.86223495  0.54137881  0.48046184    -0.00700
H3401       H  0.82410614  0.92923275  0.43642203     0.13900
H3402       H  0.93506205  0.98316095  0.46317299     0.13700
C3403       C  0.62855775  0.68932274  0.86347466     0.85500
C3404       C  0.60717088  0.65532141  0.84038603    -0.54800
C3405       C  0.58267496  0.66034948  0.82026521     0.08400
C3406       C  0.57423778  0.69495991  0.82998514     0.19300
C3407       C  0.64443955  0.73024348  0.84377734    -0.55500
C3408       C  0.61623449  0.73364333  0.82579059     0.08500
C3409       C  0.59494583  0.68745886  0.88388323    -0.55000
C3410       C  0.56537756  0.68911457  0.86696600     0.09100
H3411       H  0.61844946  0.63464927  0.83553853     0.13600
H3412       H  0.54991876  0.69539084  0.81580837    -0.00700
H3413       H  0.67530899  0.75480074  0.84268144     0.13900
H3414       H  0.59468263  0.68510824  0.90957453     0.13700
C3415       C  0.54976481  0.68675457  0.60420049     0.85500
C3416       C  0.55308952  0.65736612  0.62719046    -0.54800
C3417       C  0.59239839  0.67089303  0.63670462     0.08400
C3418       C  0.62405910  0.71072217  0.62233906     0.19300
C3419       C  0.57187788  0.72809373  0.62338375    -0.55500
C3420       C  0.61053068  0.74095530  0.63270092     0.08500
C3421       C  0.57873971  0.69198078  0.57711219    -0.55000
C3422       C  0.61639274  0.70185400  0.58683221     0.09100
H3423       H  0.52702868  0.63257365  0.63864541     0.13600
H3424       H  0.65559807  0.72002818  0.62954692    -0.00700
H3425       H  0.55765879  0.74421525  0.63285037     0.13900
H3426       H  0.56950719  0.68512077  0.55262632     0.13700
C3427       C  0.62963388  0.91803029  0.59971045     0.85500
C3428       C  0.60702037  0.93043252  0.62156206    -0.54800
C3429       C  0.57970560  0.89991801  0.63988095     0.08400
C3430       C  0.57496185  0.85786075  0.63269420     0.19300
C3431       C  0.64594018  0.89561891  0.62158720    -0.55500
C3432       C  0.61790509  0.86408106  0.63882797     0.08500
C3433       C  0.59704342  0.88493848  0.57901144    -0.55000
C3434       C  0.56783463  0.85364620  0.59594296     0.09100
H3435       H  0.61696345  0.96216824  0.62595231     0.13600
H3436       H  0.55057246  0.83267607  0.64642087    -0.00700
H3437       H  0.67703581  0.90365397  0.62538643     0.13900
H3438       H  0.59621541  0.88677373  0.55327394     0.13700
C3439       C  0.77957256  0.84102637  0.60036537     0.85500
C3440       C  0.81412332  0.86691161  0.62246709    -0.54800
C3441       C  0.80833544  0.89408651  0.63952664     0.08400
C3442       C  0.77140005  0.89752154  0.62864993     0.19300
C3443       C  0.74013264  0.82556029  0.62174173    -0.55500
C3444       C  0.73459745  0.85435508  0.63652155     0.08500
C3445       C  0.77799542  0.87085239  0.57753272    -0.55000
C3446       C  0.77700198  0.90219231  0.59154440     0.09100
H3447       H  0.83601436  0.85785939  0.62901142     0.13600
H3448       H  0.76971558  0.92279689  0.64019213    -0.00700
H3449       H  0.71905866  0.79438797  0.62755204     0.13900
H3450       H  0.77887623  0.86815624  0.55218685     0.13700
C3451       C  0.65158711  0.81500891  0.70906289     0.85500
C3452       C  0.62908632  0.77059747  0.68901041    -0.54800
C3453       C  0.63229286  0.77594956  0.65633396     0.08400
C3454       C  0.65399102  0.82014332  0.64487842     0.19300
C3455       C  0.69623903  0.83950587  0.69217450    -0.55500
C3456       C  0.69720624  0.84140162  0.65892071     0.08500
C3457       C  0.63108815  0.83917505  0.69288268    -0.55000
C3458       C  0.63126430  0.84003662  0.65989664     0.09100
H3459       H  0.63833150  0.78770087  0.70760926     0.13600
H3460       H  0.65445719  0.82188213  0.61849881    -0.00700
H3461       H  0.72303341  0.84999909  0.70647178     0.13900
H3462       H  0.61842742  0.85420772  0.70636136     0.13700
C3463       C  0.77793431  0.90911680  0.86545236     0.85500
C3464       C  0.81082346  0.91292267  0.84293450    -0.54800
C3465       C  0.80077186  0.87698027  0.82853982     0.08400
C3466       C  0.76080546  0.84098723  0.83915448     0.19300
C3467       C  0.73880055  0.88977838  0.84424877    -0.55500
C3468       C  0.72905807  0.85380035  0.83034029     0.08500
C3469       C  0.77160669  0.87684934  0.88917334    -0.55000
C3470       C  0.76612717  0.84277528  0.87558206     0.09100
H3471       H  0.83479054  0.94189689  0.83437330     0.13600
H3472       H  0.75456313  0.81174258  0.82853883    -0.00700
H3473       H  0.72162761  0.90467179  0.83908067     0.13900
H3474       H  0.77418130  0.88107189  0.91462476     0.13700
C3475       C  0.54660211  0.83925613  0.85595108     0.85500
C3476       C  0.53765770  0.85876835  0.82821856    -0.54800
C3477       C  0.57200654  0.88608265  0.81327080     0.08400
C3478       C  0.61164835  0.89165062  0.82583001     0.19300
C3479       C  0.57345234  0.82227789  0.84103496    -0.55500
C3480       C  0.60640901  0.84931006  0.82431337     0.08500
C3481       C  0.57639532  0.87477129  0.87687006    -0.55000
C3482       C  0.60995041  0.90228743  0.86075222     0.09100
H3483       H  0.50744067  0.85092362  0.82041739     0.13600
H3484       H  0.63888216  0.91463712  0.81289313    -0.00700
H3485       H  0.56744114  0.79151826  0.84171308     0.13900
H3486       H  0.57144925  0.87807601  0.90184539     0.13700
C3487       C  0.65430783  0.81658758  0.75378871     0.85500
C3488       C  0.69911694  0.83712943  0.77347664    -0.54800
C3489       C  0.69423648  0.83383807  0.80627993     0.08400
C3490       C  0.65039166  0.81321000  0.81805394     0.19300
C3491       C  0.62813103  0.77199926  0.77024895    -0.55500
C3492       C  0.62865965  0.77069245  0.80357936     0.08500
C3493       C  0.63173363  0.83777912  0.77081225    -0.55000
C3494       C  0.63061444  0.83622223  0.80369582     0.09100
H3495       H  0.68178858  0.82859843  0.75487749     0.13600
H3496       H  0.64882159  0.81239324  0.84444941    -0.00700
H3497       H  0.61228716  0.74567525  0.75538243     0.13900
H3498       H  0.61697316  0.85107823  0.75788323     0.13700
C3499       C  0.91681665  0.62014857  0.85674115     0.85500
C3500       C  0.92114212  0.59045925  0.83611458    -0.54800
C3501       C  0.88601063  0.56331426  0.82124033     0.08400
C3502       C  0.84840956  0.56558337  0.83177147     0.19300
C3503       C  0.89511405  0.63694389  0.83467404    -0.55500
C3504       C  0.85882762  0.60901308  0.82217068     0.08500
C3505       C  0.88573460  0.59395895  0.88151463    -0.55000
C3506       C  0.85062621  0.56447038  0.86888046     0.09100
H3507       H  0.95086858  0.59576844  0.82921188     0.13600
H3508       H  0.81955359  0.54118240  0.82163480    -0.00700
H3509       H  0.90800581  0.66812689  0.82727019     0.13900
H3510       H  0.89208502  0.59648359  0.90686644     0.13700
C3511       C  0.68564206  0.61991403  0.60269341     0.85500
C3512       C  0.65392837  0.59128752  0.62610227    -0.54800
C3513       C  0.66185780  0.56291707  0.63858267     0.08400
C3514       C  0.70031919  0.56429200  0.62454803     0.19300
C3515       C  0.72719840  0.63598998  0.62112676    -0.55500
C3516       C  0.73592843  0.60804783  0.63313855     0.08500
C3517       C  0.68669054  0.59178843  0.57680332    -0.55000
C3518       C  0.69238443  0.56139546  0.58788849     0.09100
H3519       H  0.63145191  0.59768025  0.63599488     0.13600
H3520       H  0.70540135  0.53977904  0.63329653    -0.00700
H3521       H  0.74762956  0.66714768  0.62746185     0.13900
H3522       H  0.68311007  0.59551017  0.55177630     0.13700
C3523       C  0.91759183  0.77747651  0.60188018     0.85500
C3524       C  0.92106092  0.81109047  0.62311065    -0.54800
C3525       C  0.88491082  0.80246381  0.63636681     0.08400
C3526       C  0.84811035  0.76281798  0.62460734     0.19300
C3527       C  0.89505873  0.73853796  0.62319130    -0.55500
C3528       C  0.85799557  0.72924335  0.63406978     0.08500
C3529       C  0.88692719  0.77271492  0.57631181    -0.55000
C3530       C  0.85162956  0.76745547  0.58823487     0.09100
H3531       H  0.95006563  0.83420749  0.63258089     0.13600
H3532       H  0.81879087  0.75786818  0.63403612    -0.00700
H3533       H  0.90841670  0.72118902  0.63198876     0.13900
H3534       H  0.89298322  0.77467528  0.55106717     0.13700
C3535       C  0.81799453  0.65008747  0.70668024     0.85500
C3536       C  0.83651943  0.69559707  0.68862700    -0.54800
C3537       C  0.83469006  0.69256454  0.65581364     0.08400
C3538       C  0.81769836  0.64932132  0.64231346     0.19300
C3539       C  0.77492925  0.62147328  0.68823718    -0.55500
C3540       C  0.77436654  0.62260814  0.65512331     0.08500
C3541       C  0.84338213  0.63185966  0.68980511    -0.55000
C3542       C  0.84374522  0.63265582  0.65678680     0.09100
H3543       H  0.82714275  0.67715199  0.70631898     0.13600
H3544       H  0.81824259  0.64923701  0.61590121    -0.00700
H3545       H  0.74773484  0.60562895  0.70132527     0.13900
H3546       H  0.85737450  0.61783603  0.70288493     0.13700
C3547       C  0.68153119  0.54642619  0.85363903     0.85500
C3548       C  0.65101294  0.54805061  0.83070012    -0.54800
C3549       C  0.66312683  0.58670912  0.81996392     0.08400
C3550       C  0.70308481  0.61992290  0.83558010     0.19300
C3551       C  0.72244644  0.56931039  0.83450496    -0.55500
C3552       C  0.73544563  0.60791771  0.82567353     0.08500
C3553       C  0.68543535  0.57472096  0.88080940    -0.55000
C3554       C  0.69445566  0.61218236  0.87163747     0.09100
H3555       H  0.62745677  0.52099164  0.81915963     0.13600
H3556       H  0.71134989  0.65120783  0.82874429    -0.00700
H3557       H  0.73754581  0.55440725  0.82408697     0.13900
H3558       H  0.67997602  0.56515499  0.90536196     0.13700
C3559       C  0.84548706  0.77508246  0.85782406     0.85500
C3560       C  0.87640932  0.80944482  0.83808658    -0.54800
C3561       C  0.90292158  0.80067473  0.82304464     0.08400
C3562       C  0.90012962  0.76078252  0.83424590     0.19300
C3563       C  0.82870953  0.73671021  0.83561874    -0.55500
C3564       C  0.85629249  0.72763318  0.82375605     0.08500
C3565       C  0.87097908  0.76977715  0.88320281    -0.55000
C3566       C  0.90126778  0.76512382  0.87127707     0.09100
H3567       H  0.87175551  0.83430430  0.83141563     0.13600
H3568       H  0.92453298  0.75601542  0.82469141    -0.00700
H3569       H  0.79758978  0.71906731  0.82763545     0.13900
H3570       H  0.86846422  0.77403070  0.90840869     0.13700
C3571       C  0.81444018  0.64599202  0.75136203     0.85500
C3572       C  0.76934582  0.62636604  0.77045408    -0.54800
C3573       C  0.77271137  0.62926407  0.80324009     0.08400
C3574       C  0.81668301  0.64721239  0.81569106     0.19300
C3575       C  0.84155433  0.68989750  0.76873536    -0.55500
C3576       C  0.84171119  0.69016276  0.80185005     0.08500
C3577       C  0.83505271  0.62249798  0.76811480    -0.55000
C3578       C  0.83471989  0.62229343  0.80115259     0.09100
H3579       H  0.78716273  0.63450048  0.75220493     0.13600
H3580       H  0.81772455  0.64747020  0.84209377    -0.00700
H3581       H  0.85634428  0.71739213  0.75503033     0.13900
H3582       H  0.84940211  0.60905738  0.75478079     0.13700
C3583       C  0.84546276  0.54908207  0.60439713     0.85500
C3584       C  0.87601920  0.54684476  0.62563201    -0.54800
C3585       C  0.90399469  0.58356074  0.63787169     0.08400
C3586       C  0.90052208  0.61953072  0.62583526     0.19300
C3587       C  0.82899688  0.57185093  0.62507190    -0.55500
C3588       C  0.85707586  0.60888542  0.63587427     0.08500
C3589       C  0.87082927  0.57832836  0.57815696    -0.55000
C3590       C  0.90086567  0.61412103  0.58917816     0.09100
H3591       H  0.87175006  0.51815127  0.63425998     0.13600
H3592       H  0.92490232  0.64927574  0.63465544    -0.00700
H3593       H  0.79811447  0.55909364  0.63327942     0.13900
H3594       H  0.86835573  0.57010748  0.55322762     0.13700
O3595       O  0.78994971  0.89242899  0.69294816    -0.58800
C3596       C  0.80906941  0.87726809  0.79577939     0.73800
O3597       O  0.83581511  0.82883751  0.73807538    -0.60000
C3598       C  0.81523125  0.89293360  0.67314318     0.73800
C3599       C  0.87021207  0.94651180  0.73799103     0.76100
Cd3600     Cd  0.81681833  0.87275767  0.73448328     1.29100
O3601       O  0.78200503  0.87312091  0.77594033    -0.58800
O3602       O  0.83301328  0.93617900  0.73965899    -0.57700
C3603       C  0.80219841  0.79696356  0.73438179     0.76100
O3604       O  0.88212221  0.92070094  0.73798766    -0.60000
O3605       O  0.84176316  0.87986448  0.78641491    -0.58500
O3606       O  0.84253732  0.88582201  0.68293671    -0.58500
O3607       O  0.77070425  0.79944398  0.72891003    -0.57600
O3608       O  0.89713021  0.78655910  0.68628612    -0.58800
C3609       C  0.90553927  0.80844340  0.78936760     0.73800
O3610       O  0.92925210  0.87679508  0.72985214    -0.60000
C3611       C  0.88608819  0.80761713  0.66980065     0.73800
C3612       C  0.80318145  0.76017626  0.73570794     0.76100
Cd3613     Cd  0.88250621  0.80473147  0.73055824     1.37500
O3614       O  0.91058148  0.78517362  0.77021120    -0.58800
O3615       O  0.81432659  0.75181659  0.71011763    -0.57700
C3616       C  0.95733868  0.86787537  0.72642053     0.76100
O3617       O  0.81965997  0.75711320  0.76068095    -0.60000
O3618       O  0.89482897  0.83314469  0.77880272    -0.58500
O3619       O  0.87342897  0.82949755  0.68285140    -0.58500
O3620       O  0.94821922  0.83094038  0.72313960    -0.57600
O3621       O  0.58091416  0.89402812  0.69466806    -0.58800
C3622       C  0.57246764  0.90468841  0.78464823     0.73800
O3623       O  0.63174114  0.00316551  0.74599999    -0.60000
C3624       C  0.57712864  0.91262259  0.67128014     0.73800
C3625       C  0.49839395  0.89757639  0.72711108     0.76100
Cd3626     Cd  0.58032269  0.93929276  0.72996065     1.37500
O3627       O  0.58477427  0.89463790  0.76027500    -0.58800
O3628       O  0.52146863  0.88292202  0.72904822    -0.57700
C3629       C  0.66129690  0.99684210  0.74363347     0.76100
O3630       O  0.51380079  0.93609597  0.72720357    -0.60000
O3631       O  0.56331760  0.93237979  0.78352986    -0.58500
O3632       O  0.57622237  0.94521907  0.67583385    -0.58500
O3633       O  0.65399649  0.96327572  0.73201369    -0.57600
O3634       O  0.61281850  0.68969470  0.77171272    -0.58800
C3635       C  0.60200707  0.66361136  0.66778534     0.73800
O3636       O  0.65708562  0.63426677  0.72154332    -0.60000
C3637       C  0.59527438  0.65792134  0.78837390     0.73800
C3638       C  0.54178802  0.62273184  0.72898154     0.76100
Cd3639     Cd  0.61766132  0.65813465  0.72814965     1.37500
O3640       O  0.61871840  0.69358475  0.68676318    -0.58800
O3641       O  0.56094699  0.66130503  0.72705151    -0.57700
C3642       C  0.68969204  0.66783336  0.71907999     0.76100
O3643       O  0.55969342  0.60191110  0.72785925    -0.60000
O3644       O  0.59469171  0.62889827  0.67670603    -0.58500
O3645       O  0.59456808  0.62612062  0.77827463    -0.58500
O3646       O  0.69023307  0.70074154  0.72510014    -0.57600
O3647       O  0.68792034  0.62317004  0.77348559    -0.58800
C3648       C  0.65379181  0.55342234  0.67219922     0.73800
O3649       O  0.70197526  0.55010951  0.76928062    -0.60000
C3650       C  0.65880437  0.59273242  0.78616705     0.73800
C3651       C  0.72405467  0.66555843  0.70944677     0.76100
Cd3652     Cd  0.69010075  0.58785419  0.72837144     1.37500
O3653       O  0.67569861  0.54225261  0.68598425    -0.58800
O3654       O  0.74414441  0.66215488  0.73154427    -0.57700
C3655       C  0.69871471  0.52729477  0.74668865     0.76100
O3656       O  0.71590521  0.64186680  0.68649832    -0.60000
O3657       O  0.63554826  0.56700119  0.68917261    -0.58500
O3658       O  0.63408090  0.56465965  0.76790188    -0.58500
O3659       O  0.72194838  0.54367920  0.72340460    -0.57600
O3660       O  0.91276981  0.60145638  0.69187752    -0.58800
C3661       C  0.89238874  0.55569175  0.78886022     0.73800
O3662       O  0.92535177  0.50234478  0.72630431    -0.60000
C3663       C  0.91764105  0.58235861  0.66915935     0.73800
C3664       C  0.99895632  0.60062194  0.73214025     0.76100
Cd3665     Cd  0.92210556  0.56044227  0.72898458     1.37500
O3666       O  0.87505653  0.56234568  0.76583838    -0.58800
O3667       O  0.98017051  0.62013781  0.73432337    -0.57700
C3668       C  0.89801093  0.98708604  0.73391606     0.76100
O3669       O  0.98058587  0.56250909  0.73287072    -0.60000
O3670       O  0.92089731  0.54903065  0.78295789    -0.58500
O3671       O  0.92841064  0.55678587  0.67507325    -0.58500
O3672       O  0.86824691  0.50239725  0.71753859    -0.57600
C3673       C  0.72104835  0.70991405  0.91341957     0.85500
C3674       C  0.69603800  0.71268206  0.88563846    -0.54800
C3675       C  0.65922648  0.68240135  0.88146759     0.08400
C3676       C  0.65299608  0.64489136  0.89982471     0.19300
C3677       C  0.69178133  0.69462043  0.94165497    -0.55500
C3678       C  0.65703911  0.65844682  0.93493559     0.08500
C3679       C  0.72593113  0.67327562  0.90468422    -0.55000
C3680       C  0.69151005  0.64099660  0.89391046     0.09100
H3681       H  0.70808281  0.73770439  0.86952056     0.13600
H3682       H  0.62397227  0.61705521  0.89417549    -0.00700
H3683       H  0.69964832  0.70884601  0.96476256     0.13900
H3684       H  0.75505732  0.67477768  0.90285083     0.13700
C3685       C  0.71129405  0.97972340  0.89784520     0.85500
C3686       C  0.70710030  0.50538495  0.87622935    -0.54800
C3687       C  0.67336301  0.50515940  0.86726715     0.08400
C3688       C  0.64187141  0.97692685  0.88566655     0.19300
C3689       C  0.68876422  0.98259059  0.92759999    -0.55500
C3690       C  0.65138036  0.97864310  0.92109656     0.08500
C3691       C  0.67840247  0.94013631  0.88129552    -0.55000
C3692       C  0.64287103  0.93865121  0.87541662     0.09100
H3693       H  0.73457322  0.52323060  0.86381500     0.13600
H3694       H  0.61290332  0.97591546  0.88023958    -0.00700
H3695       H  0.70094540  0.98682089  0.95125094     0.13900
H3696       H  0.68136752  0.91491504  0.87327672     0.13700
C3697       C  0.70948043  0.70923642  0.55118953     0.85500
C3698       C  0.70963421  0.68820236  0.58241086    -0.54800
C3699       C  0.67695464  0.65335893  0.58992002     0.08400
C3700       C  0.64038290  0.64857854  0.56987207     0.19300
C3701       C  0.68978164  0.67481173  0.52650998    -0.55500
C3702       C  0.65147578  0.64475839  0.53578093     0.08500
C3703       C  0.67608760  0.72022892  0.55555751    -0.55000
C3704       C  0.64192409  0.69040669  0.56842772     0.09100
H3705       H  0.73552494  0.70093126  0.59772920     0.13600
H3706       H  0.61068617  0.62343587  0.57787703    -0.00700
H3707       H  0.70308847  0.67507574  0.50385177     0.13900
H3708       H  0.68095641  0.75063374  0.55264504     0.13700
C3709       C  0.72288201  0.98639228  0.55041306     0.85500
C3710       C  0.69668043  0.95849190  0.57680792    -0.54800
C3711       C  0.66055910  0.95409819  0.58103979     0.08400
C3712       C  0.65505402  0.98504539  0.56157569     0.19300
C3713       C  0.69484438  0.97351486  0.52110438    -0.55500
C3714       C  0.65980996  0.97496273  0.52651843     0.08500
C3715       C  0.72416847  0.52841088  0.55796082    -0.55000
C3716       C  0.68959197  0.52776722  0.56675188     0.09100
H3717       H  0.70762672  0.94401341  0.59213562     0.13600
H3718       H  0.62613706  0.98436812  0.56642572    -0.00700
H3719       H  0.70389848  0.96801655  0.49824362     0.13900
H3720       H  0.75350125  0.55567153  0.56041203     0.13700
C3721       C  0.98892131  0.75399643  0.55548037     0.85500
C3722       C  0.95856176  0.75124325  0.58016513    -0.54800
C3723       C  0.95743188  0.78446065  0.58773011     0.08400
C3724       C  0.99202501  0.82212077  0.57129510     0.19300
C3725       C  0.98247065  0.77543448  0.52718893    -0.55500
C3726       C  0.98634243  0.81233007  0.53525478     0.08500
C3727       C  0.53110871  0.78663729  0.56957790    -0.55000
C3728       C  0.53172354  0.82077732  0.57968503     0.09100
H3729       H  0.93823286  0.72331926  0.59121838     0.13600
H3730       H  0.99329672  0.85090549  0.57782006    -0.00700
H3731       H  0.97536964  0.76276426  0.50352220     0.13900
H3732       H  0.55713970  0.78256224  0.57244300     0.13700
C3733       C  0.75351396  0.74740997  0.54973276     0.85500
C3734       C  0.75280546  0.77416132  0.57665527    -0.54800
C3735       C  0.78569366  0.80897805  0.58273937     0.08400
C3736       C  0.82219069  0.81267719  0.56340062     0.19300
C3737       C  0.77204705  0.77627743  0.52113386    -0.55500
C3738       C  0.80968974  0.80945854  0.52798550     0.08500
C3739       C  0.78760568  0.73899473  0.55931292    -0.55000
C3740       C  0.82214659  0.77223530  0.56875421     0.09100
H3741       H  0.72653199  0.76497474  0.59080232     0.13600
H3742       H  0.85142820  0.84012551  0.56928586    -0.00700
H3743       H  0.75773266  0.77046851  0.49798518     0.13900
H3744       H  0.78333863  0.70877363  0.56168559     0.13700
C3745       C  0.98241717  0.70950308  0.55401168     0.85500
C3746       C  0.50306261  0.70674473  0.58544174    -0.54800
C3747       C  0.50697941  0.67472514  0.59098716     0.08400
C3748       C  0.97699505  0.64016171  0.56761314     0.19300
C3749       C  0.99798137  0.69305412  0.52713291    -0.55500
C3750       C  0.99130223  0.65447394  0.53310512     0.08500
C3751       C  0.93845872  0.67446226  0.55754491    -0.55000
C3752       C  0.93570440  0.63995926  0.56859010     0.09100
H3753       H  0.50948291  0.72823409  0.60423275     0.13600
H3754       H  0.97374527  0.61037950  0.57351732    -0.00700
H3755       H  0.00891730  0.70832748  0.50461418     0.13900
H3756       H  0.91193932  0.67789430  0.55556164     0.13700
C3757       C  0.98717719  0.71161309  0.90655276     0.85500
C3758       C  0.95838022  0.68631836  0.87984820    -0.54800
C3759       C  0.95633134  0.65173540  0.87193704     0.08400
C3760       C  0.98851946  0.64608547  0.88983817     0.19300
C3761       C  0.97685935  0.68171677  0.93405067    -0.55500
C3762       C  0.97980458  0.64826437  0.92580277     0.08500
C3763       C  0.52945839  0.71925137  0.89558302    -0.55000
C3764       C  0.52932947  0.68592358  0.88391608     0.09100
H3765       H  0.94001442  0.69571987  0.86760104     0.13600
H3766       H  0.98897033  0.61827206  0.88289382    -0.00700
H3767       H  0.97214166  0.68840957  0.95814855     0.13900
H3768       H  0.55623272  0.74907978  0.89431471     0.13700
C3769       C  0.98245497  0.75059698  0.90848036     0.85500
C3770       C  0.50449508  0.77316369  0.87894698    -0.54800
C3771       C  0.50823580  0.80876351  0.87351230     0.08400
C3772       C  0.97775048  0.81472111  0.89398908     0.19300
C3773       C  0.99802159  0.78311136  0.93538101    -0.55500
C3774       C  0.99191895  0.81547552  0.92879707     0.08500
C3775       C  0.93873952  0.74211932  0.90368703    -0.55000
C3776       C  0.93651122  0.77373320  0.89180386     0.09100
H3777       H  0.51152994  0.75855719  0.86013516     0.13600
H3778       H  0.97543918  0.84155500  0.88721735    -0.00700
H3779       H  0.00776741  0.77833685  0.95825367     0.13900
H3780       H  0.91215042  0.71212906  0.90509809     0.13700
C3781       C  0.76061311  0.75211738  0.91252663     0.85500
C3782       C  0.78059612  0.75021390  0.88146201    -0.54800
C3783       C  0.81343655  0.78321958  0.87175122     0.08400
C3784       C  0.82037076  0.81993667  0.89166955     0.19300
C3785       C  0.79617759  0.77186788  0.93632153    -0.55500
C3786       C  0.82665690  0.80975211  0.92606989     0.08500
C3787       C  0.75016516  0.78575442  0.90851832    -0.55000
C3788       C  0.77870141  0.81808037  0.89337876     0.09100
H3789       H  0.76967982  0.72278831  0.86818350     0.13600
H3790       H  0.84508757  0.84895241  0.88225435    -0.00700
H3791       H  0.79463364  0.76032177  0.96004905     0.13900
H3792       H  0.72006857  0.78141875  0.91247516     0.13700
C3793       C  0.76231153  0.98350817  0.55299757     0.85500
C3794       C  0.77933998  0.50655412  0.58253811    -0.54800
C3795       C  0.81377765  0.50850547  0.59120085     0.08400
C3796       C  0.82585319  0.98034213  0.57122902     0.19300
C3797       C  0.79603755  0.00103159  0.52820283    -0.55500
C3798       C  0.82864307  0.99672143  0.53639999     0.08500
C3799       C  0.75463772  0.93998920  0.55804206    -0.55000
C3800       C  0.78570807  0.93850334  0.57194948     0.09100
H3801       H  0.76764591  0.52237436  0.59575884     0.13600
H3802       H  0.85276837  0.97871999  0.57906629    -0.00700
H3803       H  0.79198801  0.01024507  0.50489229     0.13900
H3804       H  0.72501551  0.91305249  0.55560146     0.13700
C3805       C  0.75695013  0.98683725  0.90102226     0.85500
C3806       C  0.75278407  0.94703827  0.89202053    -0.54800
C3807       C  0.78561157  0.94705572  0.88206692     0.08400
C3808       C  0.82493524  0.98637474  0.89096927     0.19300
C3809       C  0.78284103  0.99574832  0.93159552    -0.55500
C3810       C  0.81874064  0.99506361  0.92684234     0.08500
C3811       C  0.78641402  0.53052552  0.89820062    -0.55000
C3812       C  0.82091243  0.53115952  0.88913421     0.09100
H3813       H  0.72784977  0.91846898  0.90025598     0.13600
H3814       H  0.85287439  0.98490221  0.88679838    -0.00700
H3815       H  0.77163707  0.99735609  0.95478748     0.13900
H3816       H  0.78328480  0.55719714  0.89635942     0.13700
C3817       C  0.94819196  0.86778152  0.98317179     0.85500
C3818       C  0.95172498  0.84456289  0.95420095    -0.54800
C3819       C  0.98565817  0.84024136  0.95402465     0.08400
C3820       C  0.51346034  0.86002066  0.98358213     0.19300
C3821       C  0.95152485  0.84575271  0.51205803    -0.55500
C3822       C  0.98397023  0.84005537  0.51199359     0.08500
C3823       C  0.98846247  0.90766846  0.98224994    -0.55000
C3824       C  0.52341127  0.90525043  0.98404380     0.09100
H3825       H  0.92863927  0.83175239  0.93586396     0.13600
H3826       H  0.54052086  0.85636114  0.98400518    -0.00700
H3827       H  0.92892658  0.83446702  0.53055518     0.13900
H3828       H  0.98887592  0.93554235  0.97799598     0.13700
C3829       C  0.52455391  0.59659286  0.97712790     0.85500
C3830       C  0.51943449  0.61851578  0.94866955    -0.54800
C3831       C  0.98606557  0.62355454  0.94998343     0.08400
C3832       C  0.95996813  0.60511126  0.97999888     0.19300
C3833       C  0.52394819  0.61996600  0.50651286    -0.55500
C3834       C  0.99163177  0.62639126  0.50803548     0.08500
C3835       C  0.98371405  0.55684713  0.97932111    -0.55000
C3836       C  0.94898081  0.55936495  0.97856962     0.09100
H3837       H  0.54072203  0.62970675  0.92922514     0.13600
H3838       H  0.93335187  0.60945892  0.98114278    -0.00700
H3839       H  0.54799699  0.63151147  0.52395508     0.13900
H3840       H  0.98315689  0.52867668  0.98223085     0.13700
C3841       C  0.60209603  0.55890100  0.98060723     0.85500
C3842       C  0.61308574  0.57801642  0.51327907    -0.54800
C3843       C  0.61988960  0.61618199  0.51414078     0.08400
C3844       C  0.60634923  0.62919462  0.98406553     0.19300
C3845       C  0.56235504  0.55736682  0.97226074    -0.55500
C3846       C  0.56309327  0.59336279  0.97603826     0.08500
C3847       C  0.63333356  0.59147799  0.95829058    -0.55000
C3848       C  0.63403992  0.62739284  0.95895411     0.09100
H3849       H  0.61918786  0.56464158  0.53364180     0.13600
H3850       H  0.60818284  0.65906405  0.98593398    -0.00700
H3851       H  0.53610089  0.52970687  0.96444131     0.13900
H3852       H  0.65361287  0.58701988  0.94323216     0.13700
C3853       C  0.60137167  0.51779838  0.97877430     0.85500
C3854       C  0.63402182  0.51643249  0.49894008    -0.54800
C3855       C  0.63645470  0.98167596  0.50127098     0.08400
C3856       C  0.60811974  0.95138236  0.97583968     0.19300
C3857       C  0.60811009  0.50695205  0.94530148    -0.55500
C3858       C  0.62198146  0.97731148  0.94496115     0.08500
C3859       C  0.56600558  0.98132654  0.98715487    -0.55000
C3860       C  0.56471882  0.94478437  0.98348716     0.09100
H3861       H  0.65592815  0.54183020  0.51290772     0.13600
H3862       H  0.60933564  0.92301413  0.97434001    -0.00700
H3863       H  0.61378664  0.52620624  0.92481544     0.13900
H3864       H  0.54112536  0.98435794  0.99598177     0.13700
C3865       C  0.86893857  0.90597908  0.97757655     0.85500
C3866       C  0.83850649  0.87560673  0.50156600    -0.54800
C3867       C  0.83739184  0.83987710  0.50442733     0.08400
C3868       C  0.86561511  0.83518733  0.98070491     0.19300
C3869       C  0.90954780  0.90798285  0.98575943    -0.55500
C3870       C  0.90927074  0.87169432  0.98453520     0.08500
C3871       C  0.85574112  0.88075308  0.94634688    -0.55000
C3872       C  0.85192582  0.84290068  0.94866985     0.09100
H3873       H  0.81620373  0.88024084  0.51307241     0.13600
H3874       H  0.86389357  0.80535819  0.98223341    -0.00700
H3875       H  0.93631774  0.93627175  0.99132310     0.13900
H3876       H  0.84699977  0.89021082  0.92505322     0.13700
C3877       C  0.86936625  0.94873863  0.97808070     0.85500
C3878       C  0.85680717  0.95849040  0.51019418    -0.54800
C3879       C  0.85365307  0.99245035  0.51093874     0.08400
C3880       C  0.86356154  0.51323543  0.98049275     0.19300
C3881       C  0.84136008  0.95229942  0.95374013    -0.55500
C3882       C  0.84120460  0.98790729  0.95335445     0.08500
C3883       C  0.90992862  0.98657447  0.97119445    -0.55000
C3884       C  0.90735739  0.52005836  0.97444806     0.09100
H3885       H  0.84935745  0.93962551  0.53105373     0.13600
H3886       H  0.86205653  0.54149074  0.98026765    -0.00700
H3887       H  0.82400173  0.92925513  0.93679299     0.13900
H3888       H  0.93511000  0.98358635  0.96325331     0.13700
loop_ 
_geom_bond_atom_site_label_1 
_geom_bond_atom_site_label_2 
_geom_bond_distance 
_geom_bond_site_symmetry_2 
_ccdc_geom_bond_type 
C1            C2   1.501       .  S
C1            C7   1.519       .  S
C1            C5   1.587       .  S
C1          C273   1.541       .  S
C2            H9   1.088       .  S
C2            C3   1.370       .  D
C3            C4   1.557       .  S
C3          C235   1.463       .  S
C4            C8   1.577       .  S
C4            C6   1.560       .  S
C4           H10   1.110       .  S
C5           H11   1.082       .  S
C5            C6   1.364       .  D
C6           C90   1.545       .  S
C7           H12   1.084       .  S
C7            C8   1.361       .  D
C8          C362   1.499       .  S
C13          C14   1.511       .  S
C13          C19   1.521       .  S
C13          C17   1.586       .  S
C13         C345   1.523       .  S
C14          H21   1.084       .  S
C14          C15   1.353       .  D
C15          C16   1.526       .  S
C15         C233   1.417       .  S
C16          C20   1.550       .  S
C16          C18   1.530       .  S
C16          H22   1.112       .  S
C17          H23   1.081       .  S
C17          C18   1.362       .  D
C18          C51   1.510       .  S
C19          H24   1.068       .  S
C19          C20   1.354       .  D
C20         C302   1.481       .  S
C25          C26   1.493       .  S
C25          C31   1.522       .  S
C25          C29   1.587       .  S
C25         C309   1.519       .  S
C26          H33   1.089       .  S
C26          C27   1.353       .  D
C27          C28   1.548       .  S
C27         C222   1.428       .  S
C28          C32   1.568       .  S
C28          C30   1.554       .  S
C28          H34   1.111       .  S
C29          H35   1.079       .  S
C29          C30   1.359       .  D
C30          C56   1.541       .  S
C31          H36   1.087       .  S
C31          C32   1.362       .  D
C32         C326   1.482       .  S
C37          C38   1.497       .  S
C37          C43   1.519       .  S
C37          C41   1.596       .  S
C37         C333   1.539       .  S
C38          H45   1.089       .  S
C38          C39   1.357       .  D
C39          C40   1.550       .  S
C39         C196   1.436       .  S
C40          C44   1.573       .  S
C40          C42   1.568       .  S
C40          H46   1.111       .  S
C41          H47   1.080       .  S
C41          C42   1.369       .  D
C42          C54   1.564       .  S
C43          H48   1.070       .  S
C43          C44   1.358       .  D
C44         C398   1.502       .  S
C49          C50   1.691       .  S
C49          C55   1.633       .  S
C49          C53   1.635       .  S
C49          C85   1.874       .  S
C50          H57   0.958       .  S
C50          C51   1.379       .  D
C51          C52   1.537       .  S
C52          C56   1.542       .  S
C52          C54   1.543       .  S
C52          H58   1.112       .  S
C53          H59   1.073       .  S
C53          C54   1.399       .  D
C55          H60   1.077       .  S
C55          C56   1.390       .  D
C61          C62   1.524       .  S
C61          C67   1.524       .  S
C61          C65   1.588       .  S
C61         C405   1.550       .  S
C62          H69   1.087       .  S
C62          C63   1.369       .  D
C63          C64   1.518       .  S
C63         C194   1.413       .  S
C64          C68   1.543       .  S
C64          C66   1.561       .  S
C64          H70   1.112       .  S
C65          H71   1.080       .  S
C65          C66   1.362       .  D
C66          C87   1.547       .  S
C67          H72   1.066       .  S
C67          C68   1.353       .  D
C68         C386   1.489       .  S
C73          C74   1.513       .  S
C73          C79   1.533       .  S
C73          C77   1.592       .  S
C73         C369   1.536       .  S
C74          H81   1.087       .  S
C74          C75   1.361       .  D
C75          C76   1.530       .  S
C75         C220   1.408       .  S
C76          C80   1.534       .  S
C76          C78   1.540       .  S
C76          H82   1.112       .  S
C77          H83   1.080       .  S
C77          C78   1.359       .  D
C78          C92   1.530       .  S
C79          H84   1.086       .  S
C79          C80   1.360       .  D
C80         C290   1.463       .  S
C85          C86   1.700       .  S
C85          C91   1.619       .  S
C85          C89   1.637       .  S
C86          H93   0.970       .  S
C86          C87   1.392       .  D
C87          C88   1.544       .  S
C88          C92   1.544       .  S
C88          C90   1.544       .  S
C88          H94   1.112       .  S
C89          H95   1.084       .  S
C89          C90   1.389       .  D
C91          H96   1.078       .  S
C91          C92   1.383       .  D
C97          C98   1.489       .  S
C97         C103   1.521       .  S
C97         C101   1.579       .  S
C97         C357   1.512       .  S
C98         H105   1.089       .  S
C98          C99   1.346       .  D
C99         C100   1.562       .  S
C99         C259   1.455       .  S
C100        C104   1.591       .  S
C100        C102   1.550       .  S
C100        H106   1.110       .  S
C101        H107   1.079       .  S
C101        C102   1.361       .  D
C102        C176   1.529       .  S
C103        H108   1.087       .  S
C103        C104   1.364       .  D
C104        C410   1.511       .  S
C109        C110   1.521       .  S
C109        C115   1.528       .  S
C109        C113   1.584       .  S
C109        C297   1.545       .  S
C110        H117   1.087       .  S
C110        C111   1.372       .  D
C111        C112   1.561       .  S
C111        C246   1.455       .  S
C112        C116   1.560       .  S
C112        C114   1.574       .  S
C112        H118   1.111       .  S
C113        H119   1.082       .  S
C113        C114   1.362       .  D
C114        C138   1.567       .  S
C115        H120   1.082       .  S
C115        C116   1.357       .  D
C116        C314   1.498       .  S
C121        C122   1.518       .  S
C121        C127   1.529       .  S
C121        C125   1.568       .  S
C121        C321   1.526       .  S
C122        H129   1.088       .  S
C122        C123   1.373       .  D
C123        C124   1.544       .  S
C123        C209   1.428       .  S
C124        C128   1.547       .  S
C124        C126   1.568       .  S
C124        H130   1.112       .  S
C125        H131   1.086       .  S
C125        C126   1.351       .  D
C126        C135   1.532       .  S
C127        H132   1.082       .  S
C127        C128   1.353       .  D
C128        C338   1.481       .  S
C133        C134   1.695       .  S
C133        C139   1.620       .  S
C133        C137   1.632       .  S
C133        C169   1.878       .  S
C134        H141   0.962       .  S
C134        C135   1.381       .  D
C135        C136   1.549       .  S
C136        C140   1.553       .  S
C136        C138   1.540       .  S
C136        H142   1.112       .  S
C137        H143   1.059       .  S
C137        C138   1.391       .  D
C139        H144   1.082       .  S
C139        C140   1.389       .  D
C140        C186   1.528       .  S
C145        C146   1.533       .  S
C145        C151   1.522       .  S
C145        C149   1.573       .  S
C145        C285   1.537       .  S
C146        H153   1.086       .  S
C146        C147   1.379       .  D
C147        C148   1.545       .  S
C147        C248   1.450       .  S
C148        C152   1.548       .  S
C148        C150   1.569       .  S
C148        H154   1.112       .  S
C149        H155   1.080       .  S
C149        C150   1.347       .  D
C150        C171   1.545       .  S
C151        H156   1.078       .  S
C151        C152   1.357       .  D
C152        C278   1.483       .  S
C157        C158   1.508       .  S
C157        C163   1.532       .  S
C157        C161   1.583       .  S
C157        C381   1.545       .  S
C158        H165   1.088       .  S
C158        C159   1.370       .  D
C159        C160   1.544       .  S
C159        C207   1.442       .  S
C160        C164   1.558       .  S
C160        C162   1.564       .  S
C160        H166   1.111       .  S
C161        H167   1.082       .  S
C161        C162   1.370       .  D
C162        C174   1.554       .  S
C163        H168   1.082       .  S
C163        C164   1.357       .  D
C164        C374   1.490       .  S
C169        C170   1.700       .  S
C169        C175   1.613       .  S
C169        C173   1.636       .  S
C170        H177   0.969       .  S
C170        C171   1.387       .  D
C171        C172   1.539       .  S
C172        C176   1.558       .  S
C172        C174   1.534       .  S
C172        H178   1.111       .  S
C173        H179   1.078       .  S
C173        C174   1.396       .  D
C175        H180   1.082       .  S
C175        C176   1.383       .  D
C181        C182   1.509       .  S
C181        C187   1.521       .  S
C181        C185   1.565       .  S
C181        C393   1.522       .  S
C182        H189   1.087       .  S
C182        C183   1.372       .  D
C183        C184   1.539       .  S
C183        C261   1.451       .  S
C184        C188   1.564       .  S
C184        C186   1.565       .  S
C184        H190   1.111       .  S
C185        H191   1.083       .  S
C185        C186   1.361       .  D
C187        H192   1.084       .  S
C187        C188   1.345       .  D
C188        C350   1.478       .  S
O193        C196   1.268       .  A
O193       Cd198   2.296       .  S
C194        O203   1.266       .  A
C194        O199   1.274       .  A
O195        C201   1.260       .  A
O195       Cd198   2.152       .  S
C196        O204   1.274       .  A
C197        O202   1.283       .  A
C197        O200   1.273       .  A
C197        C266   1.384       .  S
Cd198       O205   2.441       .  S
Cd198       O204   2.324       .  S
Cd198       O203   2.350       .  S
Cd198       O199   2.208       .  S
Cd198       O202   2.261       .  S
Cd198       O200   2.141       .  S
C201        O205   1.271       .  A
C201        C210   1.423       .  S
O206        C209   1.282       .  A
O206       Cd211   2.175       .  S
C207        O216   1.281       .  A
C207        O212   1.282       .  A
O208        C214   1.287       .  A
O208       Cd211   2.375       .  S
C209        O217   1.281       .  A
C210        O215   1.258       .  A
C210        O213   1.255       .  A
Cd211       O218   2.208       .  S
Cd211       O217   2.346       .  S
Cd211       O216   2.277       .  S
Cd211       O212   2.304       .  S
Cd211       O215   2.514       .  S
Cd211       O213   2.516       .  S
C214        O218   1.284       .  A
C214       C2167   1.433       .  S
O219        C222   1.267       .  A
O219       Cd224   2.303       .  S
C220        O229   1.272       .  A
C220        O225   1.267       .  A
O221        C227   1.275       .  A
O221       Cd224   2.310       .  S
C222        O230   1.276       .  A
C223        O228   1.282   1_655  A
C223        O226   1.266   1_655  A
C223       C2158   1.434       .  S
Cd224       O231   2.439       .  S
Cd224       O230   2.299       .  S
Cd224       O229   2.337       .  S
Cd224       O225   2.211       .  S
Cd224       O228   2.442       .  S
Cd224       O226   2.213       .  S
C227        O231   1.266       .  A
C227       C1225   1.450       .  S
O232        C235   1.266       .  A
O232       Cd237   2.496       .  S
C233        O242   1.262       .  A
C233        O238   1.260       .  A
O234        C240   1.257       .  A
O234       Cd237   2.356       .  S
C235        O243   1.263       .  A
C236        O241   1.259       .  A
C236        O239   1.262       .  A
C236       C2206   1.433       .  S
Cd237       O244   2.468       .  S
Cd237       O243   2.325       .  S
Cd237       O242   2.272       .  S
Cd237       O238   2.386       .  S
Cd237       O241   2.411       .  S
Cd237       O239   2.450       .  S
C240        O244   1.265       .  A
C240        C249   1.447       .  S
O245        C248   1.255       .  A
O245       Cd250   2.328       .  S
C246        O255   1.274       .  A
C246        O251   1.255       .  A
O247        C253   1.253       .  A
O247       Cd250   2.450       .  S
C248        O256   1.264       .  A
C249        O254   1.251       .  A
C249        O252   1.258       .  A
Cd250       O257   2.541       .  S
Cd250       O256   2.456       .  S
Cd250       O255   2.420       .  S
Cd250       O251   2.356       .  S
Cd250       O254   2.522       .  S
Cd250       O252   2.529       .  S
C253        O257   1.262       .  A
C253       C1199   1.465   1_545  S
O258        C261   1.271       .  A
O258       Cd263   2.471       .  S
C259        O268   1.259       .  A
C259        O264   1.278       .  A
O260       C1238   1.259   1_545  A
O260       Cd263   2.327       .  S
C261        O269   1.258       .  A
C262        O267   1.261       .  A
C262        O265   1.270       .  A
C262       C2180   1.433       .  S
Cd263       O270   2.249       .  S
Cd263       O269   2.293       .  S
Cd263       O268   2.430       .  S
Cd263       O264   2.343       .  S
Cd263       O267   2.395       .  S
Cd263       O265   2.366       .  S
C266       O1232   1.265       .  A
C266       O1242   1.270       .  A
O270       C1238   1.263   1_545  A
C271        C272   1.530       .  S
C271        C277   1.545       .  S
C271        C275   1.535       .  S
C271        C379   1.567       .  S
C272        H279   1.064       .  S
C272        C273   1.322       .  D
C273        C274   1.556       .  S
C274        C278   1.561       .  S
C274        C276   1.562       .  S
C274        H280   1.111       .  S
C275        H281   1.078       .  S
C275        C276   1.386       .  D
C276        C446   1.489       .  S
C277        H282   1.088       .  S
C277        C278   1.347       .  D
C283        C289   1.555       .  S
C283        C287   1.535       .  S
C283       C1256   1.522       .  S
C283        C403   1.597       .  S
C284       C1255   1.504   1_545  S
C284        H291   1.081       .  S
C284        C285   1.335       .  D
C285       C1258   1.557   1_545  S
C286        C290   1.549       .  S
C286        C288   1.542       .  S
C286       C1257   1.562       .  S
C286        H292   1.111       .  S
C287        H293   1.078       .  S
C287        C288   1.386       .  D
C288        C456   1.480       .  S
C289        H294   1.087       .  S
C289        C290   1.353       .  D
C295        C296   1.529       .  S
C295        C301   1.557       .  S
C295        C299   1.517       .  S
C295        C331   1.579       .  S
C296        H303   1.065       .  S
C296        C297   1.334       .  D
C297        C298   1.559       .  S
C298        C302   1.557       .  S
C298        C300   1.546       .  S
C298        H304   1.110       .  S
C299        H305   1.077       .  S
C299        C300   1.373       .  D
C300        C441   1.464       .  S
C301        H306   1.087       .  S
C301        C302   1.357       .  D
C307        C308   1.518       .  S
C307        C311   1.544       .  S
C307       C1285   1.557       .  S
C307        C391   1.576       .  S
C308        H315   1.070       .  S
C308        C309   1.313       .  D
C309        C310   1.543       .  S
C310        C312   1.559       .  S
C310       C1286   1.580       .  S
C310        H316   1.111       .  S
C311        H317   1.081   1_554  S
C311        C312   1.384       .  D
C312        C453   1.490   1_554  S
C313       C1279   1.549   1_545  S
C313        H318   1.087       .  S
C313        C314   1.353       .  D
C314       C1282   1.568   1_545  S
C319        C320   1.522       .  S
C319        C323   1.527       .  S
C319       C2269   1.558       .  S
C319        C343   1.580       .  S
C320        H327   1.065       .  S
C320        C321   1.331       .  D
C321        C322   1.544       .  S
C322        C324   1.549       .  S
C322       C2270   1.548       .  S
C322        H328   1.111       .  S
C323        H329   1.081       .  S
C323        C324   1.381       .  D
C324        C420   1.463       .  S
C325       C2263   1.560   1_455  S
C325        H330   1.086       .  S
C325        C326   1.358       .  D
C326       C2266   1.549   1_455  S
C331        C332   1.519       .  S
C331        C337   1.543       .  S
C331        C335   1.562       .  S
C332        H339   1.075       .  S
C332        C333   1.308       .  D
C333        C334   1.559       .  S
C334        C338   1.573       .  S
C334        C336   1.540       .  S
C334        H340   1.111       .  S
C335        H341   1.084       .  S
C335        C336   1.393       .  D
C336        C465   1.498       .  S
C337        H342   1.088       .  S
C337        C338   1.351       .  D
C343        C349   1.547       .  S
C343        C347   1.551       .  S
C343       C2288   1.525       .  S
C344       C2287   1.524   1_455  S
C344        H351   1.083       .  S
C344        C345   1.310       .  D
C345       C2290   1.549   1_455  S
C346        C350   1.564       .  S
C346        C348   1.546       .  S
C346       C2289   1.548       .  S
C346        H352   1.111       .  S
C347        H353   1.080       .  S
C347        C348   1.389       .  D
C348        C432   1.504       .  S
C349        H354   1.087       .  S
C349        C350   1.356       .  D
C355        C356   1.517       .  S
C355        C359   1.544       .  S
C355       C2305   1.564       .  S
C355        C367   1.596       .  S
C356        H363   1.072       .  S
C356        C357   1.318       .  D
C357        C358   1.545       .  S
C358        C360   1.546       .  S
C358       C2306   1.562       .  S
C358        H364   1.111       .  S
C359        H365   1.078       .  S
C359        C360   1.390       .  D
C360        C429   1.488       .  S
C361       C2299   1.562   1_455  S
C361        H366   1.087       .  S
C361        C362   1.359       .  D
C362       C2302   1.562   1_455  S
C367        C373   1.555       .  S
C367        C371   1.551       .  S
C367       C2312   1.520       .  S
C368       C2311   1.520   1_455  S
C368        H375   1.071       .  S
C368        C369   1.317       .  D
C369       C2314   1.557   1_455  S
C370        C374   1.566       .  S
C370        C372   1.559       .  S
C370       C2313   1.557       .  S
C370        H376   1.110       .  S
C371        H377   1.081       .  S
C371        C372   1.391       .  D
C372        C417   1.515       .  S
C373        H378   1.087       .  S
C373        C374   1.357       .  D
C379        C380   1.546       .  S
C379        C385   1.540       .  S
C379        C383   1.540       .  S
C380        H387   1.075       .  S
C380        C381   1.325       .  D
C381        C382   1.545       .  S
C382        C386   1.576       .  S
C382        C384   1.548       .  S
C382        H388   1.110       .  S
C383        H389   1.084       .  S
C383        C384   1.389       .  D
C384        C470   1.483       .  S
C385        H390   1.088       .  S
C385        C386   1.344       .  D
C391        C397   1.558       .  S
C391        C395   1.534       .  S
C391       C1364   1.525       .  S
C392       C1363   1.534   1_545  S
C392        H399   1.073       .  S
C392        C393   1.331       .  D
C393       C1366   1.548   1_545  S
C394        C398   1.562       .  S
C394        C396   1.564       .  S
C394       C1365   1.540       .  S
C394        H400   1.110       .  S
C395        H401   1.082       .  S
C395        C396   1.382       .  D
C396        C477   1.490       .  S
C397        H402   1.087       .  S
C397        C398   1.354       .  D
C403        C404   1.522       .  S
C403        C407   1.553       .  S
C403       C1381   1.551       .  S
C404        H411   1.076       .  S
C404        C405   1.313       .  D
C405        C406   1.565       .  S
C406        C408   1.555       .  S
C406       C1382   1.567       .  S
C406        H412   1.110       .  S
C407        H413   1.083       .  S
C407        C408   1.388       .  D
C408        C480   1.508       .  S
C409       C1375   1.585   1_545  S
C409        H414   1.086       .  S
C409        C410   1.355       .  D
C410       C1378   1.535   1_545  S
C415        C416   1.553       .  S
C415        C421   1.536       .  S
C415        C468   1.554       .  S
C415        C905   1.506       .  S
C416        H423   1.084       .  S
C416        C417   1.385       .  D
C417       C2362   1.549       .  S
C418        C422   1.565       .  S
C418       C2361   1.549   1_455  S
C418       C2850   1.554   1_455  S
C418        H424   1.110       .  S
C419        C901   1.506   1_554  S
C419        H425   1.079       .  S
C419        C420   1.353       .  D
C420       C2848   1.552   1_554  S
C421        H426   1.073       .  S
C421       C2366   1.378       .  D
C422       C2365   1.378   1_455  D
C422        C458   1.536       .  S
C427        C428   1.537       .  S
C427        C444   1.546       .  S
C427       C2377   1.518   1_455  S
C427        C917   1.526       .  S
C428        H435   1.080       .  S
C428       C2373   1.376   1_455  D
C429        C430   1.537       .  S
C429       C2372   1.376       .  D
C430        C434   1.579       .  S
C430        C918   1.567       .  S
C430        H436   1.110       .  S
C431        C913   1.525   1_554  S
C431        H437   1.072       .  S
C431       C2376   1.365   1_455  D
C432        C916   1.566   1_554  S
C432       C2375   1.365       .  D
C433       C2371   1.516       .  S
C433        H438   1.072       .  S
C433        C434   1.368       .  D
C434        C482   1.532       .  S
C439        C445   1.547       .  S
C439        C443   1.545       .  S
C439        C926   1.530       .  S
C439        C451   1.587       .  S
C440        C925   1.530   1_554  S
C440        H447   1.082       .  S
C440        C441   1.347       .  D
C441        C928   1.549   1_554  S
C442        C446   1.527       .  S
C442        C444   1.552       .  S
C442        C927   1.549       .  S
C442        H448   1.111       .  S
C443        H449   1.081       .  S
C443        C444   1.385       .  D
C445        H450   1.074       .  S
C445        C446   1.361       .  D
C451        C455   1.530       .  S
C451        C938   1.542       .  S
C451       C1429   1.523   1_545  S
C452        C937   1.543   1_554  S
C452        H459   1.080       .  S
C452       C1425   1.363   1_545  D
C453        C940   1.549       .  S
C453       C1424   1.358       .  D
C454        C458   1.576       .  S
C454        C456   1.564       .  S
C454        C939   1.550       .  S
C454        H460   1.110       .  S
C455        H461   1.081       .  S
C455       C1428   1.356   1_545  D
C456       C1427   1.349       .  D
C457       C1423   1.526       .  S
C457        H462   1.081       .  S
C457        C458   1.377       .  D
C463        C469   1.551       .  S
C463        C467   1.531       .  S
C463        C950   1.529       .  S
C463        C475   1.592       .  S
C464        C949   1.528   1_554  S
C464        H471   1.067       .  S
C464        C465   1.350       .  D
C465        C952   1.561   1_554  S
C466        C470   1.531       .  S
C466        C468   1.565       .  S
C466        C951   1.560       .  S
C466        H472   1.111       .  S
C467        H473   1.079       .  S
C467        C468   1.374       .  D
C469        H474   1.082       .  S
C469        C470   1.376       .  D
C475        C481   1.530       .  S
C475        C479   1.515       .  S
C475        C962   1.545       .  S
C476        C961   1.544   1_554  S
C476        H483   1.084       .  S
C476        C477   1.368       .  D
C477       C1936   1.552   1_554  S
C478        C482   1.564       .  S
C478       C1935   1.550   1_545  S
C478       C1452   1.564   1_545  S
C478        H484   1.110       .  S
C479        H485   1.061       .  S
C479        C480   1.347       .  D
C480       C1450   1.579       .  S
C481        H486   1.079       .  S
C481       C1454   1.385       .  D
C482       C1453   1.389   1_545  D
C487        C488   1.501       .  S
C487        C493   1.519       .  S
C487        C491   1.587       .  S
C487        C759   1.541       .  S
C488        H495   1.088       .  S
C488        C489   1.370       .  D
C489        C490   1.556       .  S
C489        C721   1.461       .  S
C490        C494   1.576       .  S
C490        C492   1.560       .  S
C490        H496   1.110       .  S
C491        H497   1.082       .  S
C491        C492   1.363       .  D
C492        C576   1.545       .  S
C493        H498   1.085       .  S
C493        C494   1.361       .  D
C494        C848   1.498       .  S
C499        C500   1.511       .  S
C499        C505   1.522       .  S
C499        C503   1.587       .  S
C499        C831   1.524       .  S
C500        H507   1.084       .  S
C500        C501   1.353       .  D
C501        C502   1.525       .  S
C501        C719   1.415       .  S
C502        C506   1.549       .  S
C502        C504   1.530       .  S
C502        H508   1.112       .  S
C503        H509   1.080       .  S
C503        C504   1.363       .  D
C504        C537   1.511       .  S
C505        H510   1.068       .  S
C505        C506   1.354       .  D
C506        C788   1.481       .  S
C511        C512   1.492       .  S
C511        C517   1.522       .  S
C511        C515   1.587       .  S
C511        C795   1.518       .  S
C512        H519   1.089       .  S
C512        C513   1.352       .  D
C513        C514   1.549       .  S
C513        C708   1.428       .  S
C514        C518   1.570       .  S
C514        C516   1.553       .  S
C514        H520   1.111       .  S
C515        H521   1.079       .  S
C515        C516   1.358       .  D
C516        C542   1.540       .  S
C517        H522   1.087       .  S
C517        C518   1.362       .  D
C518        C812   1.483       .  S
C523        C524   1.496       .  S
C523        C529   1.520       .  S
C523        C527   1.597       .  S
C523        C819   1.539       .  S
C524        H531   1.090       .  S
C524        C525   1.357       .  D
C525        C526   1.550       .  S
C525        C682   1.435       .  S
C526        C530   1.572       .  S
C526        C528   1.568       .  S
C526        H532   1.111       .  S
C527        H533   1.080       .  S
C527        C528   1.369       .  D
C528        C540   1.565       .  S
C529        H534   1.069       .  S
C529        C530   1.358       .  D
C530        C884   1.502       .  S
C535        C536   1.690       .  S
C535        C541   1.632       .  S
C535        C539   1.635       .  S
C535        C571   1.874       .  S
C536        H543   0.959       .  S
C536        C537   1.379       .  D
C537        C538   1.537       .  S
C538        C542   1.543       .  S
C538        C540   1.544       .  S
C538        H544   1.112       .  S
C539        H545   1.072       .  S
C539        C540   1.399       .  D
C541        H546   1.078       .  S
C541        C542   1.390       .  D
C547        C548   1.525       .  S
C547        C553   1.526       .  S
C547        C551   1.588       .  S
C547        C891   1.553       .  S
C548        H555   1.087       .  S
C548        C549   1.370       .  D
C549        C550   1.521       .  S
C549        C680   1.416       .  S
C550        C554   1.540       .  S
C550        C552   1.561       .  S
C550        H556   1.112       .  S
C551        H557   1.080       .  S
C551        C552   1.361       .  D
C552        C573   1.546       .  S
C553        H558   1.066       .  S
C553        C554   1.353       .  D
C554        C872   1.488       .  S
C559        C560   1.512       .  S
C559        C565   1.532       .  S
C559        C563   1.593       .  S
C559        C855   1.537       .  S
C560        H567   1.087       .  S
C560        C561   1.361       .  D
C561        C562   1.529       .  S
C561        C706   1.408       .  S
C562        C566   1.535       .  S
C562        C564   1.540       .  S
C562        H568   1.112       .  S
C563        H569   1.080       .  S
C563        C564   1.360       .  D
C564        C578   1.532       .  S
C565        H570   1.086       .  S
C565        C566   1.359       .  D
C566        C776   1.463       .  S
C571        C572   1.699       .  S
C571        C577   1.620       .  S
C571        C575   1.637       .  S
C572        H579   0.969       .  S
C572        C573   1.391       .  D
C573        C574   1.546       .  S
C574        C578   1.544       .  S
C574        C576   1.543       .  S
C574        H580   1.112       .  S
C575        H581   1.083       .  S
C575        C576   1.389       .  D
C577        H582   1.078       .  S
C577        C578   1.384       .  D
C583        C584   1.489       .  S
C583        C589   1.521       .  S
C583        C587   1.580       .  S
C583        C843   1.513       .  S
C584        H591   1.089       .  S
C584        C585   1.347       .  D
C585        C586   1.561       .  S
C585        C745   1.454       .  S
C586        C590   1.590       .  S
C586        C588   1.548       .  S
C586        H592   1.110       .  S
C587        H593   1.079       .  S
C587        C588   1.361       .  D
C588        C662   1.528       .  S
C589        H594   1.087       .  S
C589        C590   1.364       .  D
C590        C896   1.509       .  S
C595        C596   1.520       .  S
C595        C601   1.528       .  S
C595        C599   1.585       .  S
C595        C783   1.544       .  S
C596        H603   1.087       .  S
C596        C597   1.371       .  D
C597        C598   1.562       .  S
C597        C732   1.455       .  S
C598        C602   1.561       .  S
C598        C600   1.573       .  S
C598        H604   1.111       .  S
C599        H605   1.082       .  S
C599        C600   1.362       .  D
C600        C624   1.567       .  S
C601        H606   1.082       .  S
C601        C602   1.356       .  D
C602        C800   1.498       .  S
C607        C608   1.518       .  S
C607        C613   1.529       .  S
C607        C611   1.568       .  S
C607        C807   1.526       .  S
C608        H615   1.088       .  S
C608        C609   1.373       .  D
C609        C610   1.544       .  S
C609        C695   1.428       .  S
C610        C614   1.548       .  S
C610        C612   1.568       .  S
C610        H616   1.112       .  S
C611        H617   1.086       .  S
C611        C612   1.351       .  D
C612        C621   1.531       .  S
C613        H618   1.082       .  S
C613        C614   1.353       .  D
C614        C824   1.482       .  S
C619        C620   1.694       .  S
C619        C625   1.621       .  S
C619        C623   1.633       .  S
C619        C655   1.879       .  S
C620        H627   0.961       .  S
C620        C621   1.380       .  D
C621        C622   1.549       .  S
C622        C626   1.553       .  S
C622        C624   1.539       .  S
C622        H628   1.112       .  S
C623        H629   1.058       .  S
C623        C624   1.391       .  D
C625        H630   1.082       .  S
C625        C626   1.390       .  D
C626        C672   1.529       .  S
C631        C632   1.533       .  S
C631        C637   1.522       .  S
C631        C635   1.573       .  S
C631        C771   1.536       .  S
C632        H639   1.086       .  S
C632        C633   1.378       .  D
C633        C634   1.545       .  S
C633        C734   1.451       .  S
C634        C638   1.547       .  S
C634        C636   1.568       .  S
C634        H640   1.112       .  S
C635        H641   1.080       .  S
C635        C636   1.347       .  D
C636        C657   1.543       .  S
C637        H642   1.078       .  S
C637        C638   1.357       .  D
C638        C764   1.483       .  S
C643        C644   1.509       .  S
C643        C649   1.531       .  S
C643        C647   1.582       .  S
C643        C867   1.544       .  S
C644        H651   1.088       .  S
C644        C645   1.370       .  D
C645        C646   1.544       .  S
C645        C693   1.442       .  S
C646        C650   1.557       .  S
C646        C648   1.564       .  S
C646        H652   1.111       .  S
C647        H653   1.082       .  S
C647        C648   1.370       .  D
C648        C660   1.553       .  S
C649        H654   1.082       .  S
C649        C650   1.357       .  D
C650        C860   1.488       .  S
C655        C656   1.699       .  S
C655        C661   1.614       .  S
C655        C659   1.637       .  S
C656        H663   0.969       .  S
C656        C657   1.386       .  D
C657        C658   1.538       .  S
C658        C662   1.557       .  S
C658        C660   1.533       .  S
C658        H664   1.111       .  S
C659        H665   1.079       .  S
C659        C660   1.396       .  D
C661        H666   1.082       .  S
C661        C662   1.384       .  D
C667        C668   1.512       .  S
C667        C673   1.522       .  S
C667        C671   1.566       .  S
C667        C879   1.526       .  S
C668        H675   1.087       .  S
C668        C669   1.373       .  D
C669        C670   1.538       .  S
C669        C747   1.450       .  S
C670        C674   1.563       .  S
C670        C672   1.564       .  S
C670        H676   1.111       .  S
C671        H677   1.083       .  S
C671        C672   1.362       .  D
C673        H678   1.084       .  S
C673        C674   1.345       .  D
C674        C836   1.477       .  S
O679        C682   1.268       .  A
O679       Cd684   2.290       .  S
C680        O689   1.267       .  A
C680        O685   1.274       .  A
O681        C687   1.261       .  A
O681       Cd684   2.150       .  S
C682        O690   1.275       .  A
C683        O688   1.283       .  A
C683        O686   1.274       .  A
C683        C752   1.385       .  S
Cd684       O691   2.441       .  S
Cd684       O690   2.320       .  S
Cd684       O689   2.358       .  S
Cd684       O685   2.201       .  S
Cd684       O688   2.244       .  S
Cd684       O686   2.157       .  S
C687        O691   1.271       .  A
C687        C696   1.424       .  S
O692        C695   1.282       .  A
O692       Cd697   2.172       .  S
C693        O702   1.281       .  A
C693        O698   1.283       .  A
O694        C700   1.287       .  A
O694       Cd697   2.370       .  S
C695        O703   1.281       .  A
C696        O701   1.258       .  A
C696        O699   1.255       .  A
Cd697       O704   2.208       .  S
Cd697       O703   2.349       .  S
Cd697       O702   2.275       .  S
Cd697       O698   2.301       .  S
Cd697       O701   2.511       .  S
Cd697       O699   2.509       .  S
C700        O704   1.284       .  A
C700       C2653   1.432       .  S
O705        C708   1.266       .  A
O705       Cd710   2.302       .  S
C706        O715   1.272       .  A
C706        O711   1.267       .  A
O707        C713   1.276       .  A
O707       Cd710   2.311       .  S
C708        O716   1.277       .  A
C709        O714   1.282   1_655  A
C709        O712   1.265   1_655  A
C709       C2644   1.436       .  S
Cd710       O717   2.434       .  S
Cd710       O716   2.297       .  S
Cd710       O715   2.337       .  S
Cd710       O711   2.217       .  S
Cd710       O714   2.450       .  S
Cd710       O712   2.217       .  S
C713        O717   1.266       .  A
C713       C1711   1.450       .  S
O718        C721   1.267       .  A
O718       Cd723   2.489       .  S
C719        O728   1.263       .  A
C719        O724   1.258       .  A
O720        C726   1.256       .  A
O720       Cd723   2.360       .  S
C721        O729   1.263       .  A
C722        O727   1.260       .  A
C722        O725   1.262       .  A
C722       C2692   1.435       .  S
Cd723       O730   2.471       .  S
Cd723       O729   2.326       .  S
Cd723       O728   2.274       .  S
Cd723       O724   2.378       .  S
Cd723       O727   2.405       .  S
Cd723       O725   2.444       .  S
C726        O730   1.265       .  A
C726        C735   1.447       .  S
O731        C734   1.254       .  A
O731       Cd736   2.332       .  S
C732        O741   1.273       .  A
C732        O737   1.255       .  A
O733        C739   1.253       .  A
O733       Cd736   2.449       .  S
C734        O742   1.264       .  A
C735        O740   1.252       .  A
C735        O738   1.258       .  A
Cd736       O743   2.545       .  S
Cd736       O742   2.459       .  S
Cd736       O741   2.422       .  S
Cd736       O737   2.361       .  S
Cd736       O740   2.529       .  S
Cd736       O738   2.532       .  S
C739        O743   1.261       .  A
C739       C1685   1.464   1_545  S
O744        C747   1.271       .  A
O744       Cd749   2.464       .  S
C745        O754   1.259       .  A
C745        O750   1.278       .  A
O746       C1724   1.260   1_545  A
O746       Cd749   2.332       .  S
C747        O755   1.258       .  A
C748        O753   1.261       .  A
C748        O751   1.269       .  A
C748       C2666   1.431       .  S
Cd749       O756   2.224       .  S
Cd749       O755   2.297       .  S
Cd749       O754   2.433       .  S
Cd749       O750   2.342       .  S
Cd749       O753   2.391       .  S
Cd749       O751   2.359       .  S
C752       O1718   1.265       .  A
C752       O1728   1.270       .  A
O756       C1724   1.263   1_545  A
C757        C758   1.529       .  S
C757        C763   1.545       .  S
C757        C761   1.535       .  S
C757        C865   1.568       .  S
C758        H765   1.064       .  S
C758        C759   1.322       .  D
C759        C760   1.555       .  S
C760        C764   1.561       .  S
C760        C762   1.562       .  S
C760        H766   1.111       .  S
C761        H767   1.079       .  S
C761        C762   1.387       .  D
C762        C932   1.490       .  S
C763        H768   1.088       .  S
C763        C764   1.347       .  D
C769       C1742   1.522       .  S
C769        C775   1.553       .  S
C769        C773   1.536       .  S
C769        C889   1.595       .  S
C770       C1741   1.503   1_545  S
C770        H777   1.081       .  S
C770        C771   1.334       .  D
C771       C1744   1.557   1_545  S
C772       C1743   1.562       .  S
C772        C776   1.551       .  S
C772        C774   1.539       .  S
C772        H778   1.111       .  S
C773        H779   1.079       .  S
C773        C774   1.386       .  D
C774        C942   1.479       .  S
C775        H780   1.088       .  S
C775        C776   1.353       .  D
C781        C782   1.529       .  S
C781        C787   1.558       .  S
C781        C785   1.517       .  S
C781        C817   1.579       .  S
C782        H789   1.065       .  S
C782        C783   1.334       .  D
C783        C784   1.559       .  S
C784        C788   1.557       .  S
C784        C786   1.546       .  S
C784        H790   1.110       .  S
C785        H791   1.077       .  S
C785        C786   1.373       .  D
C786        C927   1.464       .  S
C787        H792   1.087       .  S
C787        C788   1.357       .  D
C793        C794   1.517       .  S
C793       C1771   1.559       .  S
C793        C797   1.542       .  S
C793        C877   1.576       .  S
C794        H801   1.070       .  S
C794        C795   1.313       .  D
C795        C796   1.544       .  S
C796       C1772   1.582       .  S
C796        C798   1.561       .  S
C796        H802   1.111       .  S
C797        H803   1.081       .  S
C797        C798   1.384       .  D
C798        C939   1.489       .  S
C799       C1765   1.550   1_545  S
C799        H804   1.087       .  S
C799        C800   1.354       .  D
C800       C1768   1.566   1_545  S
C805        C806   1.522       .  S
C805       C2755   1.558       .  S
C805        C809   1.528       .  S
C805        C829   1.581       .  S
C806        H813   1.064       .  S
C806        C807   1.331       .  D
C807        C808   1.544       .  S
C808       C2756   1.548       .  S
C808        C810   1.549       .  S
C808        H814   1.111       .  S
C809        H815   1.081       .  S
C809        C810   1.381       .  D
C810        C906   1.465       .  S
C811       C2749   1.561   1_455  S
C811        H816   1.086       .  S
C811        C812   1.359       .  D
C812       C2752   1.548   1_455  S
C817        C818   1.519       .  S
C817        C823   1.543       .  S
C817        C821   1.562       .  S
C818        H825   1.076       .  S
C818        C819   1.308       .  D
C819        C820   1.560       .  S
C820        C824   1.574       .  S
C820        C822   1.541       .  S
C820        H826   1.111       .  S
C821        H827   1.084       .  S
C821        C822   1.393       .  D
C822        C951   1.498       .  S
C823        H828   1.088       .  S
C823        C824   1.351       .  D
C829       C2774   1.522       .  S
C829        C835   1.547       .  S
C829        C833   1.551       .  S
C830       C2773   1.523   1_455  S
C830        H837   1.083       .  S
C830        C831   1.310       .  D
C831       C2776   1.551   1_455  S
C832       C2775   1.550       .  S
C832        C836   1.565       .  S
C832        C834   1.548       .  S
C832        H838   1.110       .  S
C833        H839   1.080       .  S
C833        C834   1.389       .  D
C834        C918   1.506       .  S
C835        H840   1.087       .  S
C835        C836   1.355       .  D
C841        C842   1.518       .  S
C841       C2791   1.563       .  S
C841        C845   1.545       .  S
C841        C853   1.596       .  S
C842        H849   1.071       .  S
C842        C843   1.318       .  D
C843        C844   1.545       .  S
C844       C2792   1.561       .  S
C844        C846   1.545       .  S
C844        H850   1.111       .  S
C845        H851   1.078       .  S
C845        C846   1.391       .  D
C846        C915   1.488       .  S
C847       C2785   1.560   1_455  S
C847        H852   1.087       .  S
C847        C848   1.357       .  D
C848       C2788   1.563   1_455  S
C853       C2798   1.522       .  S
C853        C859   1.554       .  S
C853        C857   1.551       .  S
C854       C2797   1.522   1_455  S
C854        H861   1.072       .  S
C854        C855   1.316       .  D
C855       C2800   1.558   1_455  S
C856       C2799   1.556       .  S
C856        C860   1.566       .  S
C856        C858   1.556       .  S
C856        H862   1.110       .  S
C857        H863   1.081       .  S
C857        C858   1.391       .  D
C858        C903   1.513       .  S
C859        H864   1.087       .  S
C859        C860   1.357       .  D
C865        C866   1.546       .  S
C865        C871   1.541       .  S
C865        C869   1.539       .  S
C866        H873   1.075       .  S
C866        C867   1.325       .  D
C867        C868   1.545       .  S
C868        C872   1.574       .  S
C868        C870   1.547       .  S
C868        H874   1.110       .  S
C869        H875   1.084       .  S
C869        C870   1.389       .  D
C870        C956   1.482       .  S
C871        H876   1.088       .  S
C871        C872   1.344       .  D
C877       C1850   1.525       .  S
C877        C883   1.559       .  S
C877        C881   1.535       .  S
C878       C1849   1.536   1_545  S
C878        H885   1.073       .  S
C878        C879   1.332       .  D
C879       C1852   1.548   1_545  S
C880       C1851   1.541       .  S
C880        C884   1.563       .  S
C880        C882   1.562       .  S
C880        H886   1.110       .  S
C881        H887   1.082       .  S
C881        C882   1.382       .  D
C882        C963   1.491       .  S
C883        H888   1.087       .  S
C883        C884   1.354       .  D
C889        C890   1.523       .  S
C889       C1867   1.551       .  S
C889        C893   1.550       .  S
C890        H897   1.073       .  S
C890        C891   1.316       .  D
C891        C892   1.566       .  S
C892       C1868   1.566       .  S
C892        C894   1.557       .  S
C892        H898   1.110       .  S
C893        H899   1.083       .  S
C893        C894   1.386       .  D
C894        C966   1.505       .  S
C895       C1861   1.585   1_545  S
C895        H900   1.086       .  S
C895        C896   1.354       .  D
C896       C1864   1.533   1_545  S
C901        C902   1.553       .  S
C901        C907   1.538       .  S
C901        C954   1.555       .  S
C902        H909   1.084       .  S
C902        C903   1.385       .  D
C903       C2848   1.547       .  S
C904       C2847   1.549   1_455  S
C904        C908   1.565       .  S
C904       C2364   1.553   1_456  S
C904        H910   1.110       .  S
C905        H911   1.079       .  S
C905        C906   1.353       .  D
C906       C2362   1.555       .  S
C907        H912   1.073       .  S
C907       C2852   1.379       .  D
C908       C2851   1.378   1_455  D
C908        C944   1.535       .  S
C913        C914   1.537       .  S
C913       C2863   1.518   1_455  S
C913        C930   1.546       .  S
C914        H921   1.081       .  S
C914       C2859   1.377   1_455  D
C915        C916   1.536       .  S
C915       C2858   1.377       .  D
C916        C920   1.578       .  S
C916        H922   1.110       .  S
C917        H923   1.072       .  S
C917       C2862   1.365   1_455  D
C918       C2861   1.364       .  D
C919       C2857   1.516       .  S
C919        H924   1.072       .  S
C919        C920   1.368       .  D
C920        C968   1.532       .  S
C925        C931   1.547       .  S
C925        C929   1.546       .  S
C925        C937   1.589       .  S
C926        H933   1.083       .  S
C926        C927   1.347       .  D
C928        C932   1.527       .  S
C928        C930   1.552       .  S
C928        H934   1.111       .  S
C929        H935   1.081       .  S
C929        C930   1.385       .  D
C931        H936   1.074       .  S
C931        C932   1.361       .  D
C937       C1915   1.522   1_545  S
C937        C941   1.530       .  S
C938        H945   1.080       .  S
C938       C1911   1.362   1_545  D
C939       C1910   1.356       .  D
C940        C944   1.575       .  S
C940        C942   1.563       .  S
C940        H946   1.110       .  S
C941        H947   1.081       .  S
C941       C1914   1.356   1_545  D
C942       C1913   1.349       .  D
C943       C1909   1.525       .  S
C943        H948   1.081       .  S
C943        C944   1.377       .  D
C949        C955   1.550       .  S
C949        C953   1.530       .  S
C949        C961   1.589       .  S
C950        H957   1.067       .  S
C950        C951   1.350       .  D
C952        C956   1.531       .  S
C952        C954   1.566       .  S
C952        H958   1.111       .  S
C953        H959   1.079       .  S
C953        C954   1.373       .  D
C955        H960   1.082       .  S
C955        C956   1.376       .  D
C961        C967   1.530       .  S
C961        C965   1.514       .  S
C962        H969   1.084       .  S
C962        C963   1.369       .  D
C963       C1450   1.551       .  S
C964       C1449   1.551   1_546  S
C964        C968   1.564       .  S
C964       C1938   1.564   1_545  S
C964        H970   1.110       .  S
C965        H971   1.062       .  S
C965        C966   1.346       .  D
C966       C1936   1.579       .  S
C967        H972   1.079       .  S
C967       C1940   1.385       .  D
C968       C1939   1.389   1_545  D
C973        C974   1.493       .  S
C973        C979   1.516       .  S
C973        C977   1.600       .  S
C973       C1245   1.526       .  S
C974        H981   1.092       .  S
C974        C975   1.346       .  D
C975        C976   1.563       .  S
C975       C1207   1.444       .  S
C976        C980   1.585       .  S
C976        C978   1.554       .  S
C976        H982   1.110       .  S
C977        H983   1.079       .  S
C977        C978   1.375       .  D
C978       C1062   1.561       .  S
C979        H984   1.084       .  S
C979        C980   1.362       .  D
C980       C1334   1.501       .  S
C985        C986   1.538       .  S
C985        C991   1.537       .  S
C985        C989   1.587       .  S
C985       C1317   1.565       .  S
C986        H993   1.086       .  S
C986        C987   1.380       .  D
C987        C988   1.518       .  S
C987       C1205   1.421       .  S
C988        C992   1.521       .  S
C988        C990   1.544       .  S
C988        H994   1.113       .  S
C989        H995   1.081       .  S
C989        C990   1.358       .  D
C990       C1023   1.533       .  S
C991        H996   1.078       .  S
C991        C992   1.357       .  D
C992       C1274   1.476       .  S
C997        C998   1.492       .  S
C997       C1003   1.524       .  S
C997       C1001   1.582       .  S
C997       C1281   1.514       .  S
C998       H1005   1.090       .  S
C998        C999   1.353       .  D
C999       C1000   1.551       .  S
C999       C1194   1.428       .  S
C1000      C1004   1.566       .  S
C1000      C1002   1.555       .  S
C1000      H1006   1.111       .  S
C1001      H1007   1.078       .  S
C1001      C1002   1.356       .  D
C1002      C1028   1.536       .  S
C1003      H1008   1.087       .  S
C1003      C1004   1.361       .  D
C1004      C1298   1.486       .  S
C1009      C1010   1.506       .  S
C1009      C1015   1.516       .  S
C1009      C1013   1.596       .  S
C1009      C1305   1.550       .  S
C1010      H1017   1.088       .  S
C1010      C1011   1.367       .  D
C1011      C1012   1.548       .  S
C1011      C1168   1.443       .  S
C1012      C1016   1.577       .  S
C1012      C1014   1.576       .  S
C1012      H1018   1.111       .  S
C1013      H1019   1.080       .  S
C1013      C1014   1.369       .  D
C1014      C1026   1.573       .  S
C1015      H1020   1.072       .  S
C1015      C1016   1.352       .  D
C1016      C1370   1.505       .  S
C1021      C1022   1.694       .  S
C1021      C1027   1.629       .  S
C1021      C1025   1.642       .  S
C1021      C1057   1.885       .  S
C1022      H1029   0.965       .  S
C1022      C1023   1.388       .  D
C1023      C1024   1.540       .  S
C1024      C1028   1.545       .  S
C1024      C1026   1.545       .  S
C1024      H1030   1.112       .  S
C1025      H1031   1.075       .  S
C1025      C1026   1.401       .  D
C1027      H1032   1.079       .  S
C1027      C1028   1.390       .  D
C1033      C1034   1.522       .  S
C1033      C1039   1.515       .  S
C1033      C1037   1.570       .  S
C1033      C1377   1.502       .  S
C1034      H1041   1.087       .  S
C1034      C1035   1.368       .  D
C1035      C1036   1.522       .  S
C1035      C1166   1.410       .  S
C1036      C1040   1.541       .  S
C1036      C1038   1.562       .  S
C1036      H1042   1.112       .  S
C1037      H1043   1.085       .  S
C1037      C1038   1.362       .  D
C1038      C1059   1.534       .  S
C1039      H1044   1.080       .  S
C1039      C1040   1.341       .  D
C1040      C1358   1.466       .  S
C1045      C1046   1.515       .  S
C1045      C1051   1.536       .  S
C1045      C1049   1.591       .  S
C1045      C1341   1.532       .  S
C1046      H1053   1.087       .  S
C1046      C1047   1.358       .  D
C1047      C1048   1.514       .  S
C1047      C1192   1.397       .  S
C1048      C1052   1.533       .  S
C1048      C1050   1.530       .  S
C1048      H1054   1.113       .  S
C1049      H1055   1.079       .  S
C1049      C1050   1.359       .  D
C1050      C1064   1.524       .  S
C1051      H1056   1.086       .  S
C1051      C1052   1.365       .  D
C1052      C1262   1.461       .  S
C1057      C1058   1.697       .  S
C1057      C1063   1.617       .  S
C1057      C1061   1.635       .  S
C1058      H1065   0.970       .  S
C1058      C1059   1.392       .  D
C1059      C1060   1.533       .  S
C1060      C1064   1.542       .  S
C1060      C1062   1.532       .  S
C1060      H1066   1.112       .  S
C1061      H1067   1.074       .  S
C1061      C1062   1.403       .  D
C1063      H1068   1.077       .  S
C1063      C1064   1.387       .  D
C1069      C1070   1.498       .  S
C1069      C1075   1.520       .  S
C1069      C1073   1.581       .  S
C1069      C1329   1.518       .  S
C1070      H1077   1.089       .  S
C1070      C1071   1.365       .  D
C1071      C1072   1.546       .  S
C1071      C1231   1.436       .  S
C1072      C1076   1.566       .  S
C1072      C1074   1.554       .  S
C1072      H1078   1.111       .  S
C1073      H1079   1.083       .  S
C1073      C1074   1.361       .  D
C1074      C1148   1.534       .  S
C1075      H1080   1.087       .  S
C1075      C1076   1.353       .  D
C1076      C1382   1.480       .  S
C1081      C1082   1.521       .  S
C1081      C1087   1.544       .  S
C1081      C1085   1.588       .  S
C1081      C1269   1.571       .  S
C1082      H1089   1.086       .  S
C1082      C1083   1.370       .  D
C1083      C1084   1.561       .  S
C1083      C1218   1.457       .  S
C1084      C1088   1.563       .  S
C1084      C1086   1.578       .  S
C1084      H1090   1.111       .  S
C1085      H1091   1.080       .  S
C1085      C1086   1.367       .  D
C1086      C1110   1.581       .  S
C1087      H1092   1.081       .  S
C1087      C1088   1.368       .  D
C1088      C1286   1.519       .  S
C1093      C1094   1.511       .  S
C1093      C1099   1.532       .  S
C1093      C1097   1.577       .  S
C1093      C1293   1.526       .  S
C1094      H1101   1.088       .  S
C1094      C1095   1.366       .  D
C1095      C1096   1.542       .  S
C1095      C1181   1.415       .  S
C1096      C1100   1.542       .  S
C1096      C1098   1.562       .  S
C1096      H1102   1.112       .  S
C1097      H1103   1.084       .  S
C1097      C1098   1.356       .  D
C1098      C1107   1.536       .  S
C1099      H1104   1.082       .  S
C1099      C1100   1.358       .  D
C1100      C1310   1.480       .  S
C1105      C1106   1.697       .  S
C1105      C1111   1.615       .  S
C1105      C1109   1.641       .  S
C1105      C1141   1.888       .  S
C1106      H1113   0.966       .  S
C1106      C1107   1.386       .  D
C1107      C1108   1.547       .  S
C1108      C1112   1.550       .  S
C1108      C1110   1.544       .  S
C1108      H1114   1.112       .  S
C1109      H1115   1.059       .  S
C1109      C1110   1.395       .  D
C1111      H1116   1.079       .  S
C1111      C1112   1.390       .  D
C1112      C1158   1.524       .  S
C1117      C1118   1.538       .  S
C1117      C1123   1.527       .  S
C1117      C1121   1.578       .  S
C1117      C1257   1.557       .  S
C1118      H1125   1.086       .  S
C1118      C1119   1.386       .  D
C1119      C1120   1.556       .  S
C1119      C1220   1.464       .  S
C1120      C1124   1.550       .  S
C1120      C1122   1.575       .  S
C1120      H1126   1.112       .  S
C1121      H1127   1.085       .  S
C1121      C1122   1.354       .  D
C1122      C1143   1.557       .  S
C1123      H1128   1.082       .  S
C1123      C1124   1.351       .  D
C1124      C1250   1.491       .  S
C1129      C1130   1.507       .  S
C1129      C1135   1.526       .  S
C1129      C1133   1.576       .  S
C1129      C1353   1.529       .  S
C1130      H1137   1.088       .  S
C1130      C1131   1.373       .  D
C1131      C1132   1.547       .  S
C1131      C1179   1.442       .  S
C1132      C1136   1.565       .  S
C1132      C1134   1.573       .  S
C1132      H1138   1.111       .  S
C1133      H1139   1.084       .  S
C1133      C1134   1.358       .  D
C1134      C1146   1.550       .  S
C1135      H1140   1.084       .  S
C1135      C1136   1.353       .  D
C1136      C1346   1.493       .  S
C1141      C1142   1.699       .  S
C1141      C1147   1.622       .  S
C1141      C1145   1.635       .  S
C1142      H1149   0.970       .  S
C1142      C1143   1.385       .  D
C1143      C1144   1.550       .  S
C1144      C1148   1.551       .  S
C1144      C1146   1.542       .  S
C1144      H1150   1.112       .  S
C1145      H1151   1.079       .  S
C1145      C1146   1.394       .  D
C1147      H1152   1.076       .  S
C1147      C1148   1.391       .  D
C1153      C1154   1.505       .  S
C1153      C1159   1.527       .  S
C1153      C1157   1.568       .  S
C1153      C1365   1.515       .  S
C1154      H1161   1.088       .  S
C1154      C1155   1.368       .  D
C1155      C1156   1.534       .  S
C1155      C1233   1.425       .  S
C1156      C1160   1.557       .  S
C1156      C1158   1.557       .  S
C1156      H1162   1.111       .  S
C1157      H1163   1.083       .  S
C1157      C1158   1.355       .  D
C1159      H1164   1.085       .  S
C1159      C1160   1.352       .  D
C1160      C1322   1.479       .  S
O1165      C1168   1.269       .  A
O1165     Cd1170   2.341       .  S
C1166      O1175   1.266       .  A
C1166      O1171   1.274       .  A
O1167      C1173   1.261       .  A
O1167     Cd1170   2.145       .  S
C1168      O1176   1.270       .  A
C1169      O1174   1.276       .  A
C1169      O1172   1.271       .  A
C1169      C1238   1.386       .  S
Cd1170     O1177   2.459       .  S
Cd1170     O1176   2.327       .  S
Cd1170     O1175   2.337       .  S
Cd1170     O1171   2.184       .  S
Cd1170     O1174   2.255       .  S
Cd1170     O1172   2.199       .  S
C1173      O1177   1.273       .  A
C1173      C1182   1.426       .  S
O1178      C1181   1.285       .  A
O1178     Cd1183   2.166       .  S
C1179      O1188   1.281       .  A
C1179      O1184   1.284       .  A
O1180      C1186   1.286       .  A
O1180     Cd1183   2.413       .  S
C1181      O1189   1.278       .  A
C1182      O1187   1.259       .  A
C1182      O1185   1.257       .  A
Cd1183     O1190   2.198       .  S
Cd1183     O1189   2.314       .  S
Cd1183     O1188   2.234       .  S
Cd1183     O1184   2.309       .  S
Cd1183     O1187   2.511       .  S
Cd1183     O1185   2.506       .  S
C1186      O1190   1.281       .  A
C1186      C3139   1.436       .  S
O1191      C1194   1.265       .  A
O1191     Cd1196   2.296       .  S
C1192      O1201   1.271       .  A
C1192      O1197   1.266       .  A
O1193      C1199   1.270   1_545  A
O1193     Cd1196   2.323   1_545  S
C1194      O1202   1.277       .  A
C1195      O1200   1.283   1_655  A
C1195      O1198   1.262   1_655  A
C1195      C3130   1.439       .  S
Cd1196     O1203   2.496       .  S
Cd1196     O1202   2.293       .  S
Cd1196     O1201   2.332       .  S
Cd1196     O1197   2.201       .  S
Cd1196     O1200   2.485       .  S
Cd1196     O1198   2.202       .  S
C1199      O1203   1.266       .  A
O1204      C1207   1.266       .  A
O1204     Cd1209   2.257       .  S
C1205      O1214   1.269       .  A
C1205      O1210   1.273       .  A
O1206      C1212   1.268       .  A
O1206     Cd1209   2.135       .  S
C1207      O1215   1.274       .  A
C1208      O1213   1.284       .  A
C1208      O1211   1.279       .  A
C1208      C3178   1.385       .  S
Cd1209     O1216   2.421       .  S
Cd1209     O1215   2.374       .  S
Cd1209     O1214   2.392       .  S
Cd1209     O1210   2.184       .  S
Cd1209     O1213   2.181       .  S
Cd1209     O1211   2.227       .  S
C1212      O1216   1.273       .  A
C1212      C1221   1.418       .  S
O1217      C1220   1.258       .  A
O1217     Cd1222   2.356       .  S
C1218      O1227   1.275       .  A
C1218      O1223   1.256       .  A
O1219      C1225   1.252       .  A
O1219     Cd1222   2.436       .  S
C1220      O1228   1.269       .  A
C1221      O1226   1.250       .  A
C1221      O1224   1.252       .  A
Cd1222     O1229   2.538       .  S
Cd1222     O1228   2.503       .  S
Cd1222     O1227   2.455       .  S
Cd1222     O1223   2.361       .  S
Cd1222     O1226   2.517       .  S
Cd1222     O1224   2.546       .  S
C1225      O1229   1.260       .  A
O1230      C1233   1.271       .  A
O1230     Cd1235   2.361       .  S
C1231      O1240   1.261       .  A
C1231      O1236   1.269       .  A
O1232     Cd1235   2.280       .  S
C1233      O1241   1.261       .  A
C1234      O1239   1.262       .  A
C1234      O1237   1.271       .  A
C1234      C3152   1.384       .  S
Cd1235     O1242   2.188       .  S
Cd1235     O1241   2.291       .  S
Cd1235     O1240   2.302       .  S
Cd1235     O1236   2.391       .  S
Cd1235     O1239   2.192       .  S
Cd1235     O1237   2.265       .  S
C1243      C1244   1.545       .  S
C1243      C1249   1.545       .  S
C1243      C1247   1.536       .  S
C1243      C1351   1.565       .  S
C1244      H1251   1.073       .  S
C1244      C1245   1.310       .  D
C1245      C1246   1.541       .  S
C1246      C1250   1.572       .  S
C1246      C1248   1.548       .  S
C1246      H1252   1.111       .  S
C1247      H1253   1.079       .  S
C1247      C1248   1.383       .  D
C1248      C1418   1.475       .  S
C1249      H1254   1.088       .  S
C1249      C1250   1.352       .  D
C1255      C1261   1.564       .  S
C1255      C1259   1.557       .  S
C1255      C1375   1.632       .  S
C1256      H1263   1.061       .  S
C1256      C1257   1.338       .  D
C1258      C1262   1.542       .  S
C1258      C1260   1.525       .  S
C1258      H1264   1.111       .  S
C1259      H1265   1.075       .  S
C1259      C1260   1.387       .  D
C1260      C1428   1.490       .  S
C1261      H1266   1.079       .  S
C1261      C1262   1.351       .  D
C1267      C1268   1.540       .  S
C1267      C1273   1.541       .  S
C1267      C1271   1.542       .  S
C1267      C1303   1.583       .  S
C1268      H1275   1.068       .  S
C1268      C1269   1.330       .  D
C1269      C1270   1.565       .  S
C1270      C1274   1.573       .  S
C1270      C1272   1.523       .  S
C1270      H1276   1.111       .  S
C1271      H1277   1.078       .  S
C1271      C1272   1.391       .  D
C1272      C1413   1.466       .  S
C1273      H1278   1.088       .  S
C1273      C1274   1.345       .  D
C1279      C1280   1.520       .  S
C1279      C1283   1.544       .  S
C1279      C1363   1.569       .  S
C1280      H1287   1.064       .  S
C1280      C1281   1.316       .  D
C1281      C1282   1.539       .  S
C1282      C1284   1.556       .  S
C1282      H1288   1.111       .  S
C1283      H1289   1.078   1_554  S
C1283      C1284   1.387       .  D
C1284      C1425   1.491       .  S
C1285      H1290   1.087       .  S
C1285      C1286   1.360       .  D
C1291      C1292   1.520       .  S
C1291      C3241   1.559       .  S
C1291      C1295   1.536       .  S
C1291      C1315   1.592       .  S
C1292      H1299   1.063       .  S
C1292      C1293   1.327       .  D
C1293      C1294   1.548       .  S
C1294      C3242   1.554       .  S
C1294      C1296   1.548       .  S
C1294      H1300   1.111       .  S
C1295      H1301   1.079       .  S
C1295      C1296   1.385       .  D
C1296      C1392   1.482       .  S
C1297      C3235   1.557   1_455  S
C1297      H1302   1.087       .  S
C1297      C1298   1.360       .  D
C1298      C3238   1.555   1_455  S
C1303      C1304   1.536       .  S
C1303      C1309   1.543       .  S
C1303      C1307   1.546       .  S
C1304      H1311   1.066       .  S
C1304      C1305   1.317       .  D
C1305      C1306   1.561       .  S
C1306      C1310   1.567       .  S
C1306      C1308   1.550       .  S
C1306      H1312   1.111       .  S
C1307      H1313   1.083   1_554  S
C1307      C1308   1.388       .  D
C1308      C1437   1.492       .  S
C1309      H1314   1.087       .  S
C1309      C1310   1.354       .  D
C1315      C3260   1.528       .  S
C1315      C1321   1.547       .  S
C1315      C1319   1.546       .  S
C1316      C3259   1.529   1_455  S
C1316      H1323   1.073       .  S
C1316      C1317   1.328       .  D
C1317      C3262   1.570   1_455  S
C1318      C3261   1.569       .  S
C1318      C1322   1.571       .  S
C1318      C1320   1.554       .  S
C1318      H1324   1.110       .  S
C1319      H1325   1.083       .  S
C1319      C1320   1.387       .  D
C1320      C1404   1.504       .  S
C1321      H1326   1.088       .  S
C1321      C1322   1.354       .  D
C1327      C1328   1.527       .  S
C1327      C3277   1.563       .  S
C1327      C1331   1.535       .  S
C1327      C1339   1.589       .  S
C1328      H1335   1.068       .  S
C1328      C1329   1.323       .  D
C1329      C1330   1.546       .  S
C1330      C3278   1.557       .  S
C1330      C1332   1.562       .  S
C1330      H1336   1.110       .  S
C1331      H1337   1.083       .  S
C1331      C1332   1.382       .  D
C1332      C1401   1.489       .  S
C1333      C3271   1.564   1_455  S
C1333      H1338   1.087       .  S
C1333      C1334   1.362       .  D
C1334      C3274   1.556   1_455  S
C1339      C3284   1.522       .  S
C1339      C1345   1.548       .  S
C1339      C1343   1.558       .  S
C1340      C3283   1.521   1_455  S
C1340      H1347   1.077       .  S
C1340      C1341   1.317       .  D
C1341      C3286   1.549   1_455  S
C1342      C3285   1.550       .  S
C1342      C1346   1.573       .  S
C1342      C1344   1.557       .  S
C1342      H1348   1.110       .  S
C1343      H1349   1.080       .  S
C1343      C1344   1.396       .  D
C1344      C1389   1.516       .  S
C1345      H1350   1.088       .  S
C1345      C1346   1.350       .  D
C1351      C1352   1.535       .  S
C1351      C1357   1.534       .  S
C1351      C1355   1.544       .  S
C1352      H1359   1.070       .  S
C1352      C1353   1.325       .  D
C1353      C1354   1.540       .  S
C1354      C1358   1.563       .  S
C1354      C1356   1.550       .  S
C1354      H1360   1.110       .  S
C1355      H1361   1.082       .  S
C1355      C1356   1.398       .  D
C1356      C1442   1.487       .  S
C1357      H1362   1.089       .  S
C1357      C1358   1.332       .  D
C1363      C1369   1.554       .  S
C1363      C1367   1.529   1_565  S
C1364      H1371   1.069       .  S
C1364      C1365   1.329       .  D
C1366      C1370   1.566       .  S
C1366      C1368   1.577       .  S
C1366      H1372   1.110       .  S
C1367      H1373   1.079       .  S
C1367      C1368   1.378   1_545  D
C1368      C1449   1.498       .  S
C1369      H1374   1.087       .  S
C1369      C1370   1.350       .  D
C1375      C1376   1.496       .  S
C1375      C1379   1.550       .  S
C1376      H1383   1.086       .  S
C1376      C1377   1.322       .  D
C1377      C1378   1.545       .  S
C1378      C1380   1.589       .  S
C1378      H1384   1.110       .  S
C1379      H1385   1.079       .  S
C1379      C1380   1.399       .  D
C1380      C1452   1.512       .  S
C1381      H1386   1.087       .  S
C1381      C1382   1.360       .  D
C1387      C1388   1.550       .  S
C1387      C1393   1.532       .  S
C1387      C1877   1.520       .  S
C1387      C1440   1.568       .  S
C1388      H1395   1.085       .  S
C1388      C1389   1.385       .  D
C1389      C3334   1.552       .  S
C1390      C3333   1.552   1_455  S
C1390      C1394   1.573       .  S
C1390      C3822   1.556   1_455  S
C1390      H1396   1.110       .  S
C1391      C1873   1.520   1_554  S
C1391      H1397   1.079       .  S
C1391      C1392   1.363       .  D
C1392      C3820   1.556   1_554  S
C1393      H1398   1.072       .  S
C1393      C3338   1.378       .  D
C1394      C3337   1.380   1_455  D
C1394      C1430   1.545       .  S
C1399      C1400   1.529       .  S
C1399      C3349   1.534   1_455  S
C1399      C1889   1.520       .  S
C1399      C1416   1.539       .  S
C1400      H1407   1.081       .  S
C1400      C3345   1.369   1_455  D
C1401      C1402   1.547       .  S
C1401      C3344   1.371       .  D
C1402      C1406   1.582       .  S
C1402      C1890   1.584       .  S
C1402      H1408   1.110       .  S
C1403      C1885   1.520   1_554  S
C1403      H1409   1.081       .  S
C1403      C3348   1.357   1_455  D
C1404      C1888   1.582   1_554  S
C1404      C3347   1.356       .  D
C1405      C3343   1.534       .  S
C1405      H1410   1.073       .  S
C1405      C1406   1.377       .  D
C1406      C1454   1.556       .  S
C1411      C1898   1.530       .  S
C1411      C1417   1.542       .  S
C1411      C1415   1.531       .  S
C1411      C1423   1.562       .  S
C1412      C1897   1.530   1_554  S
C1412      H1419   1.082       .  S
C1412      C1413   1.349       .  D
C1413      C1900   1.543   1_554  S
C1414      C1899   1.543       .  S
C1414      C1418   1.524       .  S
C1414      C1416   1.565       .  S
C1414      H1420   1.111       .  S
C1415      H1421   1.080       .  S
C1415      C1416   1.372       .  D
C1417      H1422   1.079       .  S
C1417      C1418   1.359       .  D
C1423      C1910   1.536       .  S
C1423      C1427   1.527       .  S
C1424      C1909   1.537       .  S
C1424      H1431   1.081   1_556  S
C1425      C1912   1.547   1_554  S
C1426      C1911   1.547       .  S
C1426      C1430   1.584       .  S
C1426      C1428   1.559       .  S
C1426      H1432   1.110       .  S
C1427      H1433   1.084       .  S
C1429      H1434   1.080       .  S
C1429      C1430   1.380       .  D
C1435      C1922   1.535       .  S
C1435      C1441   1.553       .  S
C1435      C1439   1.551       .  S
C1435      C1447   1.628       .  S
C1436      C1921   1.534   1_554  S
C1436      H1443   1.070       .  S
C1436      C1437   1.350       .  D
C1437      C1924   1.552   1_554  S
C1438      C1923   1.552       .  S
C1438      C1442   1.529       .  S
C1438      C1440   1.557       .  S
C1438      H1444   1.111       .  S
C1439      H1445   1.077       .  S
C1439      C1440   1.382       .  D
C1441      H1446   1.079       .  S
C1441      C1442   1.383       .  D
C1447      C1934   1.551       .  S
C1447      C1453   1.529       .  S
C1447      C1451   1.535       .  S
C1448      C1933   1.552   1_554  S
C1448      H1455   1.082       .  S
C1448      C1449   1.362       .  D
C1450      C1454   1.580       .  S
C1450      H1456   1.110       .  S
C1451      H1457   1.065       .  S
C1451      C1452   1.364       .  D
C1453      H1458   1.077       .  S
C1459      C1460   1.493       .  S
C1459      C1465   1.518       .  S
C1459      C1463   1.600       .  S
C1459      C1731   1.528       .  S
C1460      H1467   1.091       .  S
C1460      C1461   1.346       .  D
C1461      C1462   1.562       .  S
C1461      C1693   1.442       .  S
C1462      C1466   1.583       .  S
C1462      C1464   1.556       .  S
C1462      H1468   1.110       .  S
C1463      H1469   1.079       .  S
C1463      C1464   1.375       .  D
C1464      C1548   1.565       .  S
C1465      H1470   1.084       .  S
C1465      C1466   1.363       .  D
C1466      C1820   1.500       .  S
C1471      C1472   1.537       .  S
C1471      C1477   1.535       .  S
C1471      C1475   1.587       .  S
C1471      C1803   1.564       .  S
C1472      H1479   1.086       .  S
C1472      C1473   1.379       .  D
C1473      C1474   1.516       .  S
C1473      C1691   1.422       .  S
C1474      C1478   1.524       .  S
C1474      C1476   1.544       .  S
C1474      H1480   1.113       .  S
C1475      H1481   1.081       .  S
C1475      C1476   1.359       .  D
C1476      C1509   1.532       .  S
C1477      H1482   1.077       .  S
C1477      C1478   1.357       .  D
C1478      C1760   1.477       .  S
C1483      C1484   1.493       .  S
C1483      C1489   1.524       .  S
C1483      C1487   1.582       .  S
C1483      C1767   1.513       .  S
C1484      H1491   1.089       .  S
C1484      C1485   1.354       .  D
C1485      C1486   1.552       .  S
C1485      C1680   1.428       .  S
C1486      C1490   1.564       .  S
C1486      C1488   1.555       .  S
C1486      H1492   1.111       .  S
C1487      H1493   1.079       .  S
C1487      C1488   1.355       .  D
C1488      C1514   1.535       .  S
C1489      H1494   1.087       .  S
C1489      C1490   1.361       .  D
C1490      C1784   1.485       .  S
C1495      C1496   1.507       .  S
C1495      C1501   1.516       .  S
C1495      C1499   1.596       .  S
C1495      C1791   1.551       .  S
C1496      H1503   1.088       .  S
C1496      C1497   1.368       .  D
C1497      C1498   1.547       .  S
C1497      C1654   1.443       .  S
C1498      C1502   1.576       .  S
C1498      C1500   1.576       .  S
C1498      H1504   1.111       .  S
C1499      H1505   1.080       .  S
C1499      C1500   1.370       .  D
C1500      C1512   1.573       .  S
C1501      H1506   1.072       .  S
C1501      C1502   1.352       .  D
C1502      C1856   1.504       .  S
C1507      C1508   1.694       .  S
C1507      C1513   1.629       .  S
C1507      C1511   1.642       .  S
C1507      C1543   1.885       .  S
C1508      H1515   0.967       .  S
C1508      C1509   1.389       .  D
C1509      C1510   1.538       .  S
C1510      C1514   1.544       .  S
C1510      C1512   1.545       .  S
C1510      H1516   1.112       .  S
C1511      H1517   1.075       .  S
C1511      C1512   1.401       .  D
C1513      H1518   1.078       .  S
C1513      C1514   1.389       .  D
C1519      C1520   1.520       .  S
C1519      C1525   1.513       .  S
C1519      C1523   1.571       .  S
C1519      C1863   1.499       .  S
C1520      H1527   1.087       .  S
C1520      C1521   1.366       .  D
C1521      C1522   1.523       .  S
C1521      C1652   1.409       .  S
C1522      C1526   1.542       .  S
C1522      C1524   1.563       .  S
C1522      H1528   1.112       .  S
C1523      H1529   1.085       .  S
C1523      C1524   1.363       .  D
C1524      C1545   1.537       .  S
C1525      H1530   1.080       .  S
C1525      C1526   1.339       .  D
C1526      C1844   1.463       .  S
C1531      C1532   1.515       .  S
C1531      C1537   1.537       .  S
C1531      C1535   1.591       .  S
C1531      C1827   1.533       .  S
C1532      H1539   1.087       .  S
C1532      C1533   1.357       .  D
C1533      C1534   1.515       .  S
C1533      C1678   1.397       .  S
C1534      C1538   1.531       .  S
C1534      C1536   1.531       .  S
C1534      H1540   1.113       .  S
C1535      H1541   1.079       .  S
C1535      C1536   1.359       .  D
C1536      C1550   1.526       .  S
C1537      H1542   1.086       .  S
C1537      C1538   1.365       .  D
C1538      C1748   1.461       .  S
C1543      C1544   1.698       .  S
C1543      C1549   1.616       .  S
C1543      C1547   1.636       .  S
C1544      H1551   0.971       .  S
C1544      C1545   1.392       .  D
C1545      C1546   1.535       .  S
C1546      C1550   1.543       .  S
C1546      C1548   1.534       .  S
C1546      H1552   1.112       .  S
C1547      H1553   1.073       .  S
C1547      C1548   1.404       .  D
C1549      H1554   1.076       .  S
C1549      C1550   1.386       .  D
C1555      C1556   1.499       .  S
C1555      C1561   1.522       .  S
C1555      C1559   1.580       .  S
C1555      C1815   1.517       .  S
C1556      H1563   1.089       .  S
C1556      C1557   1.365       .  D
C1557      C1558   1.546       .  S
C1557      C1717   1.433       .  S
C1558      C1562   1.564       .  S
C1558      C1560   1.554       .  S
C1558      H1564   1.111       .  S
C1559      H1565   1.084       .  S
C1559      C1560   1.360       .  D
C1560      C1634   1.534       .  S
C1561      H1566   1.087       .  S
C1561      C1562   1.354       .  D
C1562      C1868   1.480       .  S
C1567      C1568   1.523       .  S
C1567      C1573   1.545       .  S
C1567      C1571   1.586       .  S
C1567      C1755   1.572       .  S
C1568      H1575   1.086       .  S
C1568      C1569   1.371       .  D
C1569      C1570   1.561       .  S
C1569      C1704   1.458       .  S
C1570      C1574   1.564       .  S
C1570      C1572   1.579       .  S
C1570      H1576   1.111       .  S
C1571      H1577   1.080       .  S
C1571      C1572   1.365       .  D
C1572      C1596   1.578       .  S
C1573      H1578   1.081       .  S
C1573      C1574   1.368       .  D
C1574      C1772   1.523       .  S
C1579      C1580   1.512       .  S
C1579      C1585   1.532       .  S
C1579      C1583   1.577       .  S
C1579      C1779   1.528       .  S
C1580      H1587   1.088       .  S
C1580      C1581   1.367       .  D
C1581      C1582   1.541       .  S
C1581      C1667   1.416       .  S
C1582      C1586   1.540       .  S
C1582      C1584   1.560       .  S
C1582      H1588   1.112       .  S
C1583      H1589   1.084       .  S
C1583      C1584   1.356       .  D
C1584      C1593   1.534       .  S
C1585      H1590   1.082       .  S
C1585      C1586   1.357       .  D
C1586      C1796   1.478       .  S
C1591      C1592   1.697       .  S
C1591      C1597   1.617       .  S
C1591      C1595   1.640       .  S
C1591      C1627   1.887       .  S
C1592      H1599   0.965       .  S
C1592      C1593   1.385       .  D
C1593      C1594   1.547       .  S
C1594      C1598   1.548       .  S
C1594      C1596   1.543       .  S
C1594      H1600   1.112       .  S
C1595      H1601   1.059       .  S
C1595      C1596   1.394       .  D
C1597      H1602   1.079       .  S
C1597      C1598   1.391       .  D
C1598      C1644   1.526       .  S
C1603      C1604   1.538       .  S
C1603      C1609   1.529       .  S
C1603      C1607   1.578       .  S
C1603      C1743   1.558       .  S
C1604      H1611   1.086       .  S
C1604      C1605   1.385       .  D
C1605      C1606   1.556       .  S
C1605      C1706   1.463       .  S
C1606      C1610   1.549       .  S
C1606      C1608   1.574       .  S
C1606      H1612   1.112       .  S
C1607      H1613   1.085       .  S
C1607      C1608   1.353       .  D
C1608      C1629   1.558       .  S
C1609      H1614   1.082       .  S
C1609      C1610   1.354       .  D
C1610      C1736   1.492       .  S
C1615      C1616   1.506       .  S
C1615      C1621   1.525       .  S
C1615      C1619   1.575       .  S
C1615      C1839   1.526       .  S
C1616      H1623   1.088       .  S
C1616      C1617   1.373       .  D
C1617      C1618   1.548       .  S
C1617      C1665   1.444       .  S
C1618      C1622   1.565       .  S
C1618      C1620   1.573       .  S
C1618      H1624   1.111       .  S
C1619      H1625   1.084       .  S
C1619      C1620   1.358       .  D
C1620      C1632   1.548       .  S
C1621      H1626   1.084       .  S
C1621      C1622   1.352       .  D
C1622      C1832   1.492       .  S
C1627      C1628   1.699       .  S
C1627      C1633   1.621       .  S
C1627      C1631   1.635       .  S
C1628      H1635   0.971       .  S
C1628      C1629   1.385       .  D
C1629      C1630   1.551       .  S
C1630      C1634   1.551       .  S
C1630      C1632   1.541       .  S
C1630      H1636   1.112       .  S
C1631      H1637   1.079       .  S
C1631      C1632   1.393       .  D
C1633      H1638   1.076       .  S
C1633      C1634   1.391       .  D
C1639      C1640   1.504       .  S
C1639      C1645   1.528       .  S
C1639      C1643   1.570       .  S
C1639      C1851   1.517       .  S
C1640      H1647   1.088       .  S
C1640      C1641   1.366       .  D
C1641      C1642   1.531       .  S
C1641      C1719   1.422       .  S
C1642      C1646   1.557       .  S
C1642      C1644   1.556       .  S
C1642      H1648   1.111       .  S
C1643      H1649   1.083       .  S
C1643      C1644   1.356       .  D
C1645      H1650   1.085       .  S
C1645      C1646   1.352       .  D
C1646      C1808   1.480       .  S
O1651      C1654   1.269       .  A
O1651     Cd1656   2.341       .  S
C1652      O1661   1.266       .  A
C1652      O1657   1.274       .  A
O1653      C1659   1.260       .  A
O1653     Cd1656   2.139       .  S
C1654      O1662   1.269       .  A
C1655      O1660   1.275       .  A
C1655      O1658   1.271       .  A
C1655      C1724   1.382       .  S
Cd1656     O1663   2.466       .  S
Cd1656     O1662   2.328       .  S
Cd1656     O1661   2.332       .  S
Cd1656     O1657   2.195       .  S
Cd1656     O1660   2.260       .  S
Cd1656     O1658   2.182       .  S
C1659      O1663   1.274       .  A
C1659      C1668   1.427       .  S
O1664      C1667   1.284       .  A
O1664     Cd1669   2.167       .  S
C1665      O1674   1.281       .  A
C1665      O1670   1.284       .  A
O1666      C1672   1.286       .  A
O1666     Cd1669   2.420       .  S
C1667      O1675   1.278       .  A
C1668      O1673   1.259       .  A
C1668      O1671   1.258       .  A
Cd1669     O1676   2.202       .  S
Cd1669     O1675   2.323       .  S
Cd1669     O1674   2.234       .  S
Cd1669     O1670   2.312       .  S
Cd1669     O1673   2.515       .  S
Cd1669     O1671   2.508       .  S
C1672      O1676   1.280       .  A
C1672      C3625   1.438       .  S
O1677      C1680   1.265       .  A
O1677     Cd1682   2.290       .  S
C1678      O1687   1.271       .  A
C1678      O1683   1.266       .  A
O1679      C1685   1.271   1_545  A
O1679     Cd1682   2.323   1_545  S
C1680      O1688   1.277       .  A
C1681      O1686   1.283   1_655  A
C1681      O1684   1.263   1_655  A
C1681      C3616   1.439       .  S
Cd1682     O1689   2.491       .  S
Cd1682     O1688   2.299       .  S
Cd1682     O1687   2.329       .  S
Cd1682     O1683   2.195       .  S
Cd1682     O1686   2.474       .  S
Cd1682     O1684   2.216       .  S
C1685      O1689   1.266       .  A
O1690      C1693   1.265       .  A
O1690     Cd1695   2.255       .  S
C1691      O1700   1.269       .  A
C1691      O1696   1.273       .  A
O1692      C1698   1.268       .  A
O1692     Cd1695   2.138       .  S
C1693      O1701   1.275       .  A
C1694      O1699   1.284       .  A
C1694      O1697   1.278       .  A
C1694      C3664   1.385   1_455  S
Cd1695     O1702   2.419       .  S
Cd1695     O1701   2.371       .  S
Cd1695     O1700   2.387       .  S
Cd1695     O1696   2.192       .  S
Cd1695     O1699   2.188       .  S
Cd1695     O1697   2.219       .  S
C1698      O1702   1.273       .  A
C1698      C1707   1.419       .  S
O1703      C1706   1.258       .  A
O1703     Cd1708   2.357       .  S
C1704      O1713   1.275       .  A
C1704      O1709   1.256       .  A
O1705      C1711   1.251       .  A
O1705     Cd1708   2.432       .  S
C1706      O1714   1.270       .  A
C1707      O1712   1.250       .  A
C1707      O1710   1.253       .  A
Cd1708     O1715   2.538       .  S
Cd1708     O1714   2.502       .  S
Cd1708     O1713   2.461       .  S
Cd1708     O1709   2.358       .  S
Cd1708     O1712   2.520       .  S
Cd1708     O1710   2.541       .  S
C1711      O1715   1.260       .  A
O1716      C1719   1.271       .  A
O1716     Cd1721   2.352       .  S
C1717      O1726   1.262       .  A
C1717      O1722   1.268       .  A
O1718     Cd1721   2.264       .  S
C1719      O1727   1.261       .  A
C1720      O1725   1.262       .  A
C1720      O1723   1.271       .  A
C1720      C3638   1.386       .  S
Cd1721     O1728   2.205       .  S
Cd1721     O1727   2.289       .  S
Cd1721     O1726   2.312       .  S
Cd1721     O1722   2.372       .  S
Cd1721     O1725   2.198       .  S
Cd1721     O1723   2.270       .  S
C1729      C1730   1.545       .  S
C1729      C1735   1.545       .  S
C1729      C1733   1.538       .  S
C1729      C1837   1.566       .  S
C1730      H1737   1.072       .  S
C1730      C1731   1.310       .  D
C1731      C1732   1.542       .  S
C1732      C1736   1.573       .  S
C1732      C1734   1.546       .  S
C1732      H1738   1.111       .  S
C1733      H1739   1.079       .  S
C1733      C1734   1.384       .  D
C1734      C1904   1.475       .  S
C1735      H1740   1.088       .  S
C1735      C1736   1.352       .  D
C1741      C1747   1.564       .  S
C1741      C1745   1.555       .  S
C1741      C1861   1.630       .  S
C1742      H1749   1.062       .  S
C1742      C1743   1.337       .  D
C1744      C1748   1.542       .  S
C1744      C1746   1.525       .  S
C1744      H1750   1.111       .  S
C1745      H1751   1.075       .  S
C1745      C1746   1.386       .  D
C1746      C1914   1.488       .  S
C1747      H1752   1.079       .  S
C1747      C1748   1.351       .  D
C1753      C1754   1.541       .  S
C1753      C1759   1.542       .  S
C1753      C1757   1.540       .  S
C1753      C1789   1.583       .  S
C1754      H1761   1.068       .  S
C1754      C1755   1.332       .  D
C1755      C1756   1.564       .  S
C1756      C1760   1.573       .  S
C1756      C1758   1.525       .  S
C1756      H1762   1.111       .  S
C1757      H1763   1.078       .  S
C1757      C1758   1.390       .  D
C1758      C1899   1.465       .  S
C1759      H1764   1.088       .  S
C1759      C1760   1.345       .  D
C1765      C1766   1.519       .  S
C1765      C1769   1.543       .  S
C1765      C1849   1.570       .  S
C1766      H1773   1.062       .  S
C1766      C1767   1.317       .  D
C1767      C1768   1.538       .  S
C1768      C1770   1.557       .  S
C1768      H1774   1.111       .  S
C1769      H1775   1.078       .  S
C1769      C1770   1.386       .  D
C1770      C1911   1.490       .  S
C1771      H1776   1.087       .  S
C1771      C1772   1.360       .  D
C1777      C1778   1.520       .  S
C1777      C3727   1.558       .  S
C1777      C1781   1.536       .  S
C1777      C1801   1.592       .  S
C1778      H1785   1.063       .  S
C1778      C1779   1.328       .  D
C1779      C1780   1.549       .  S
C1780      C3728   1.555       .  S
C1780      C1782   1.549       .  S
C1780      H1786   1.111       .  S
C1781      H1787   1.079       .  S
C1781      C1782   1.384       .  D
C1782      C1878   1.484       .  S
C1783      C3721   1.557   1_455  S
C1783      H1788   1.087       .  S
C1783      C1784   1.360       .  D
C1784      C3724   1.554   1_455  S
C1789      C1790   1.535       .  S
C1789      C1795   1.542       .  S
C1789      C1793   1.547       .  S
C1790      H1797   1.066       .  S
C1790      C1791   1.318       .  D
C1791      C1792   1.561       .  S
C1792      C1796   1.566       .  S
C1792      C1794   1.550       .  S
C1792      H1798   1.111       .  S
C1793      H1799   1.083       .  S
C1793      C1794   1.388       .  D
C1794      C1923   1.493       .  S
C1795      H1800   1.088       .  S
C1795      C1796   1.354       .  D
C1801      C3746   1.527       .  S
C1801      C1807   1.546       .  S
C1801      C1805   1.548       .  S
C1802      C3745   1.530   1_455  S
C1802      H1809   1.075       .  S
C1802      C1803   1.327       .  D
C1803      C3748   1.569   1_455  S
C1804      C3747   1.570       .  S
C1804      C1808   1.572       .  S
C1804      C1806   1.555       .  S
C1804      H1810   1.110       .  S
C1805      H1811   1.083       .  S
C1805      C1806   1.387       .  D
C1806      C1890   1.508       .  S
C1807      H1812   1.087       .  S
C1807      C1808   1.354       .  D
C1813      C1814   1.526       .  S
C1813      C3763   1.563       .  S
C1813      C1817   1.536       .  S
C1813      C1825   1.590       .  S
C1814      H1821   1.067       .  S
C1814      C1815   1.324       .  D
C1815      C1816   1.544       .  S
C1816      C3764   1.556       .  S
C1816      C1818   1.561       .  S
C1816      H1822   1.110       .  S
C1817      H1823   1.082       .  S
C1817      C1818   1.383       .  D
C1818      C1887   1.489       .  S
C1819      C3757   1.562   1_455  S
C1819      H1824   1.087       .  S
C1819      C1820   1.361       .  D
C1820      C3760   1.557   1_455  S
C1825      C3770   1.523       .  S
C1825      C1831   1.548       .  S
C1825      C1829   1.557       .  S
C1826      C3769   1.523   1_455  S
C1826      H1833   1.076       .  S
C1826      C1827   1.317       .  D
C1827      C3772   1.551   1_455  S
C1828      C3771   1.550       .  S
C1828      C1832   1.572       .  S
C1828      C1830   1.557       .  S
C1828      H1834   1.110       .  S
C1829      H1835   1.079       .  S
C1829      C1830   1.396       .  D
C1830      C1875   1.515       .  S
C1831      H1836   1.088       .  S
C1831      C1832   1.351       .  D
C1837      C1838   1.535       .  S
C1837      C1843   1.534       .  S
C1837      C1841   1.544       .  S
C1838      H1845   1.070       .  S
C1838      C1839   1.325       .  D
C1839      C1840   1.538       .  S
C1840      C1844   1.560       .  S
C1840      C1842   1.549       .  S
C1840      H1846   1.110       .  S
C1841      H1847   1.082       .  S
C1841      C1842   1.397       .  D
C1842      C1928   1.487       .  S
C1843      H1848   1.089       .  S
C1843      C1844   1.333       .  D
C1849      C1855   1.554       .  S
C1849      C1853   1.529   1_565  S
C1850      H1857   1.069       .  S
C1850      C1851   1.327       .  D
C1852      C1856   1.566       .  S
C1852      C1854   1.578       .  S
C1852      H1858   1.110       .  S
C1853      H1859   1.079       .  S
C1853      C1854   1.378   1_545  D
C1854      C1935   1.498       .  S
C1855      H1860   1.088       .  S
C1855      C1856   1.350       .  D
C1861      C1862   1.496       .  S
C1861      C1865   1.549       .  S
C1862      H1869   1.086       .  S
C1862      C1863   1.320       .  D
C1863      C1864   1.545       .  S
C1864      C1866   1.588       .  S
C1864      H1870   1.110       .  S
C1865      H1871   1.079       .  S
C1865      C1866   1.399       .  D
C1866      C1938   1.511       .  S
C1867      H1872   1.087       .  S
C1867      C1868   1.360       .  D
C1873      C1874   1.551       .  S
C1873      C1879   1.531       .  S
C1873      C1926   1.568       .  S
C1874      H1881   1.085       .  S
C1874      C1875   1.385       .  D
C1875      C3820   1.551       .  S
C1876      C3819   1.552   1_455  S
C1876      C1880   1.573       .  S
C1876      C3336   1.555   1_456  S
C1876      H1882   1.110       .  S
C1877      H1883   1.080       .  S
C1877      C1878   1.362       .  D
C1878      C3334   1.557       .  S
C1879      H1884   1.072       .  S
C1879      C3824   1.378       .  D
C1880      C3823   1.379   1_455  D
C1880      C1916   1.544       .  S
C1885      C1886   1.530       .  S
C1885      C3835   1.535   1_455  S
C1885      C1902   1.540       .  S
C1886      H1893   1.081       .  S
C1886      C3831   1.370   1_455  D
C1887      C1888   1.546       .  S
C1887      C3830   1.371       .  D
C1888      C1892   1.581       .  S
C1888      H1894   1.110       .  S
C1889      H1895   1.081       .  S
C1889      C3834   1.358   1_455  D
C1890      C3833   1.357       .  D
C1891      C3829   1.535       .  S
C1891      H1896   1.073       .  S
C1891      C1892   1.377       .  D
C1892      C1940   1.554       .  S
C1897      C1903   1.542       .  S
C1897      C1901   1.532       .  S
C1897      C1909   1.563       .  S
C1898      H1905   1.082       .  S
C1898      C1899   1.348       .  D
C1900      C1904   1.523       .  S
C1900      C1902   1.565       .  S
C1900      H1906   1.111       .  S
C1901      H1907   1.080       .  S
C1901      C1902   1.372       .  D
C1903      H1908   1.078       .  S
C1903      C1904   1.360       .  D
C1909      C1913   1.527       .  S
C1910      H1917   1.082       .  S
C1912      C1916   1.583       .  S
C1912      C1914   1.558       .  S
C1912      H1918   1.110       .  S
C1913      H1919   1.084       .  S
C1915      H1920   1.080       .  S
C1915      C1916   1.380       .  D
C1921      C1927   1.554       .  S
C1921      C1925   1.551       .  S
C1921      C1933   1.627       .  S
C1922      H1929   1.069       .  S
C1922      C1923   1.350       .  D
C1924      C1928   1.529       .  S
C1924      C1926   1.556       .  S
C1924      H1930   1.111       .  S
C1925      H1931   1.077       .  S
C1925      C1926   1.382       .  D
C1927      H1932   1.080       .  S
C1927      C1928   1.383       .  D
C1933      C1939   1.529       .  S
C1933      C1937   1.534       .  S
C1934      H1941   1.081       .  S
C1934      C1935   1.362       .  D
C1936      C1940   1.579       .  S
C1936      H1942   1.110       .  S
C1937      H1943   1.065       .  S
C1937      C1938   1.364       .  D
C1939      H1944   1.077       .  S
C1945      C1946   1.502       .  S
C1945      C1951   1.519       .  S
C1945      C1949   1.587       .  S
C1945      C2217   1.543       .  S
C1946      H1953   1.088       .  S
C1946      C1947   1.369       .  D
C1947      C1948   1.559       .  S
C1947      C2179   1.465       .  S
C1948      C1952   1.580       .  S
C1948      C1950   1.560       .  S
C1948      H1954   1.110       .  S
C1949      H1955   1.081       .  S
C1949      C1950   1.364       .  D
C1950      C2034   1.546       .  S
C1951      H1956   1.084       .  S
C1951      C1952   1.360       .  D
C1952      C2306   1.502       .  S
C1957      C1958   1.512       .  S
C1957      C1963   1.520       .  S
C1957      C1961   1.583       .  S
C1957      C2289   1.520       .  S
C1958      H1965   1.084       .  S
C1958      C1959   1.353       .  D
C1959      C1960   1.526       .  S
C1959      C2177   1.418       .  S
C1960      C1964   1.550       .  S
C1960      C1962   1.531       .  S
C1960      H1966   1.112       .  S
C1961      H1967   1.081       .  S
C1961      C1962   1.361       .  D
C1962      C1995   1.508       .  S
C1963      H1968   1.068       .  S
C1963      C1964   1.352       .  D
C1964      C2246   1.480       .  S
C1969      C1970   1.494       .  S
C1969      C1975   1.524       .  S
C1969      C1973   1.587       .  S
C1969      C2253   1.520       .  S
C1970      H1977   1.089       .  S
C1970      C1971   1.355       .  D
C1971      C1972   1.552       .  S
C1971      C2166   1.430       .  S
C1972      C1976   1.564       .  S
C1972      C1974   1.555       .  S
C1972      H1978   1.111       .  S
C1973      H1979   1.078       .  S
C1973      C1974   1.356       .  D
C1974      C2000   1.541       .  S
C1975      H1980   1.087       .  S
C1975      C1976   1.362       .  D
C1976      C2270   1.481       .  S
C1981      C1982   1.494       .  S
C1981      C1987   1.516       .  S
C1981      C1985   1.598       .  S
C1981      C2277   1.536       .  S
C1982      H1989   1.090       .  S
C1982      C1983   1.356       .  D
C1983      C1984   1.551       .  S
C1983      C2140   1.435       .  S
C1984      C1988   1.576       .  S
C1984      C1986   1.567       .  S
C1984      H1990   1.110       .  S
C1985      H1991   1.080       .  S
C1985      C1986   1.371       .  D
C1986      C1998   1.566       .  S
C1987      H1992   1.069       .  S
C1987      C1988   1.356       .  D
C1988      C2342   1.501       .  S
C1993      C1994   1.691       .  S
C1993      C1999   1.634       .  S
C1993      C1997   1.634       .  S
C1993      C2029   1.873       .  S
C1994      H2001   0.958       .  S
C1994      C1995   1.379       .  D
C1995      C1996   1.536       .  S
C1996      C2000   1.545       .  S
C1996      C1998   1.543       .  S
C1996      H2002   1.112       .  S
C1997      H2003   1.071       .  S
C1997      C1998   1.399       .  D
C1999      H2004   1.077       .  S
C1999      C2000   1.389       .  D
C2005      C2006   1.520       .  S
C2005      C2011   1.523       .  S
C2005      C2009   1.589       .  S
C2005      C2349   1.545       .  S
C2006      H2013   1.087       .  S
C2006      C2007   1.366       .  D
C2007      C2008   1.519       .  S
C2007      C2138   1.409       .  S
C2008      C2012   1.543       .  S
C2008      C2010   1.560       .  S
C2008      H2014   1.112       .  S
C2009      H2015   1.080       .  S
C2009      C2010   1.364       .  D
C2010      C2031   1.547       .  S
C2011      H2016   1.067       .  S
C2011      C2012   1.352       .  D
C2012      C2330   1.487       .  S
C2017      C2018   1.515       .  S
C2017      C2023   1.530       .  S
C2017      C2021   1.591       .  S
C2017      C2313   1.535       .  S
C2018      H2025   1.087       .  S
C2018      C2019   1.363       .  D
C2019      C2020   1.528       .  S
C2019      C2164   1.410       .  S
C2020      C2024   1.534       .  S
C2020      C2022   1.538       .  S
C2020      H2026   1.112       .  S
C2021      H2027   1.080       .  S
C2021      C2022   1.358       .  D
C2022      C2036   1.525       .  S
C2023      H2028   1.086       .  S
C2023      C2024   1.357       .  D
C2024      C2234   1.461       .  S
C2029      C2030   1.701       .  S
C2029      C2035   1.616       .  S
C2029      C2033   1.638       .  S
C2030      H2037   0.970       .  S
C2030      C2031   1.392       .  D
C2031      C2032   1.543       .  S
C2032      C2036   1.541       .  S
C2032      C2034   1.543       .  S
C2032      H2038   1.112       .  S
C2033      H2039   1.084       .  S
C2033      C2034   1.390       .  D
C2035      H2040   1.077       .  S
C2035      C2036   1.381       .  D
C2041      C2042   1.489       .  S
C2041      C2047   1.523       .  S
C2041      C2045   1.578       .  S
C2041      C2301   1.513       .  S
C2042      H2049   1.089       .  S
C2042      C2043   1.346       .  D
C2043      C2044   1.562       .  S
C2043      C2203   1.455       .  S
C2044      C2048   1.592       .  S
C2044      C2046   1.550       .  S
C2044      H2050   1.110       .  S
C2045      H2051   1.079       .  S
C2045      C2046   1.360       .  D
C2046      C2120   1.529       .  S
C2047      H2052   1.087       .  S
C2047      C2048   1.365       .  D
C2048      C2354   1.512       .  S
C2053      C2054   1.521       .  S
C2053      C2059   1.528       .  S
C2053      C2057   1.584       .  S
C2053      C2241   1.545       .  S
C2054      H2061   1.087       .  S
C2054      C2055   1.371       .  D
C2055      C2056   1.560       .  S
C2055      C2190   1.455       .  S
C2056      C2060   1.563       .  S
C2056      C2058   1.575       .  S
C2056      H2062   1.111       .  S
C2057      H2063   1.081       .  S
C2057      C2058   1.362       .  D
C2058      C2082   1.568       .  S
C2059      H2064   1.082       .  S
C2059      C2060   1.356       .  D
C2060      C2258   1.499       .  S
C2065      C2066   1.517       .  S
C2065      C2071   1.528       .  S
C2065      C2069   1.571       .  S
C2065      C2265   1.525       .  S
C2066      H2073   1.088       .  S
C2066      C2067   1.372       .  D
C2067      C2068   1.541       .  S
C2067      C2153   1.424       .  S
C2068      C2072   1.546       .  S
C2068      C2070   1.566       .  S
C2068      H2074   1.112       .  S
C2069      H2075   1.086       .  S
C2069      C2070   1.352       .  D
C2070      C2079   1.532       .  S
C2071      H2076   1.082       .  S
C2071      C2072   1.353       .  D
C2072      C2282   1.479       .  S
C2077      C2078   1.696       .  S
C2077      C2083   1.620       .  S
C2077      C2081   1.633       .  S
C2077      C2113   1.878       .  S
C2078      H2085   0.961       .  S
C2078      C2079   1.381       .  D
C2079      C2080   1.549       .  S
C2080      C2084   1.552       .  S
C2080      C2082   1.540       .  S
C2080      H2086   1.112       .  S
C2081      H2087   1.058       .  S
C2081      C2082   1.392       .  D
C2083      H2088   1.082       .  S
C2083      C2084   1.390       .  D
C2084      C2130   1.528       .  S
C2089      C2090   1.533       .  S
C2089      C2095   1.519       .  S
C2089      C2093   1.573       .  S
C2089      C2229   1.535       .  S
C2090      H2097   1.086       .  S
C2090      C2091   1.379       .  D
C2091      C2092   1.544       .  S
C2091      C2192   1.449       .  S
C2092      C2096   1.548       .  S
C2092      C2094   1.570       .  S
C2092      H2098   1.112       .  S
C2093      H2099   1.080       .  S
C2093      C2094   1.346       .  D
C2094      C2115   1.547       .  S
C2095      H2100   1.078       .  S
C2095      C2096   1.355       .  D
C2096      C2222   1.480       .  S
C2101      C2102   1.508       .  S
C2101      C2107   1.531       .  S
C2101      C2105   1.583       .  S
C2101      C2325   1.543       .  S
C2102      H2109   1.088       .  S
C2102      C2103   1.370       .  D
C2103      C2104   1.544       .  S
C2103      C2151   1.441       .  S
C2104      C2108   1.556       .  S
C2104      C2106   1.563       .  S
C2104      H2110   1.111       .  S
C2105      H2111   1.082       .  S
C2105      C2106   1.371       .  D
C2106      C2118   1.554       .  S
C2107      H2112   1.083       .  S
C2107      C2108   1.357       .  D
C2108      C2318   1.487       .  S
C2113      C2114   1.701       .  S
C2113      C2119   1.612       .  S
C2113      C2117   1.636       .  S
C2114      H2121   0.971       .  S
C2114      C2115   1.388       .  D
C2115      C2116   1.537       .  S
C2116      C2120   1.560       .  S
C2116      C2118   1.534       .  S
C2116      H2122   1.111       .  S
C2117      H2123   1.079       .  S
C2117      C2118   1.396       .  D
C2119      H2124   1.082       .  S
C2119      C2120   1.382       .  D
C2125      C2126   1.511       .  S
C2125      C2131   1.523       .  S
C2125      C2129   1.564       .  S
C2125      C2337   1.525       .  S
C2126      H2133   1.087       .  S
C2126      C2127   1.373       .  D
C2127      C2128   1.538       .  S
C2127      C2205   1.450       .  S
C2128      C2132   1.563       .  S
C2128      C2130   1.565       .  S
C2128      H2134   1.111       .  S
C2129      H2135   1.084       .  S
C2129      C2130   1.361       .  D
C2131      H2136   1.084       .  S
C2131      C2132   1.346       .  D
C2132      C2294   1.481       .  S
O2137      C2140   1.268       .  A
O2137     Cd2142   2.293       .  S
C2138      O2147   1.267       .  A
C2138      O2143   1.274       .  A
O2139      C2145   1.259       .  A
O2139     Cd2142   2.161       .  S
C2140      O2148   1.275       .  A
C2141      O2146   1.282       .  A
C2141      O2144   1.271       .  A
C2141      C2210   1.387       .  S
Cd2142     O2149   2.440       .  S
Cd2142     O2148   2.312       .  S
Cd2142     O2147   2.336       .  S
Cd2142     O2143   2.201       .  S
Cd2142     O2146   2.281       .  S
Cd2142     O2144   2.139       .  S
C2145      O2149   1.271       .  A
C2145      C2154   1.422       .  S
O2150      C2153   1.282       .  A
O2150     Cd2155   2.176       .  S
C2151      O2160   1.281       .  A
C2151      O2156   1.282       .  A
O2152      C2158   1.287       .  A
O2152     Cd2155   2.384       .  S
C2153      O2161   1.281       .  A
C2154      O2159   1.257       .  A
C2154      O2157   1.255       .  A
Cd2155     O2162   2.205       .  S
Cd2155     O2161   2.327       .  S
Cd2155     O2160   2.279       .  S
Cd2155     O2156   2.297       .  S
Cd2155     O2159   2.514       .  S
Cd2155     O2157   2.517       .  S
C2158      O2162   1.283       .  A
O2163      C2166   1.266       .  A
O2163     Cd2168   2.300       .  S
C2164      O2173   1.272       .  A
C2164      O2169   1.268       .  A
O2165      C2171   1.276       .  A
O2165     Cd2168   2.316       .  S
C2166      O2174   1.277       .  A
C2167      O2172   1.283       .  A
C2167      O2170   1.266       .  A
Cd2168     O2175   2.437       .  S
Cd2168     O2174   2.307       .  S
Cd2168     O2173   2.335       .  S
Cd2168     O2169   2.220       .  S
Cd2168     O2172   2.433       .  S
Cd2168     O2170   2.219       .  S
C2171      O2175   1.267       .  A
C2171      C3169   1.451       .  S
O2176      C2179   1.266       .  A
O2176     Cd2181   2.498       .  S
C2177      O2186   1.262       .  A
C2177      O2182   1.261       .  A
O2178      C2184   1.256       .  A
O2178     Cd2181   2.356       .  S
C2179      O2187   1.264       .  A
C2180      O2185   1.259       .  A
C2180      O2183   1.261       .  A
Cd2181     O2188   2.466       .  S
Cd2181     O2187   2.338       .  S
Cd2181     O2186   2.269       .  S
Cd2181     O2182   2.382       .  S
Cd2181     O2185   2.413       .  S
Cd2181     O2183   2.455       .  S
C2184      O2188   1.265       .  A
C2184      C2193   1.447       .  S
O2189      C2192   1.256       .  A
O2189     Cd2194   2.319       .  S
C2190      O2199   1.274       .  A
C2190      O2195   1.256       .  A
O2191      C2197   1.254       .  A
O2191     Cd2194   2.452       .  S
C2192      O2200   1.265       .  A
C2193      O2198   1.252       .  A
C2193      O2196   1.257       .  A
Cd2194     O2201   2.536       .  S
Cd2194     O2200   2.453       .  S
Cd2194     O2199   2.413       .  S
Cd2194     O2195   2.357       .  S
Cd2194     O2198   2.529       .  S
Cd2194     O2196   2.529       .  S
C2197      O2201   1.263       .  A
C2197      C3143   1.465   1_545  S
O2202      C2205   1.270       .  A
O2202     Cd2207   2.464       .  S
C2203      O2212   1.259       .  A
C2203      O2208   1.278       .  A
O2204      C3182   1.258   1_545  A
O2204     Cd2207   2.314       .  S
C2205      O2213   1.258       .  A
C2206      O2211   1.261   1_455  A
C2206      O2209   1.270       .  A
Cd2207     O2214   2.250       .  S
Cd2207     O2213   2.304       .  S
Cd2207     O2212   2.433       .  S
Cd2207     O2208   2.341       .  S
Cd2207     O2211   2.393       .  S
Cd2207     O2209   2.367   1_655  S
C2210      O3176   1.264       .  A
C2210      O3186   1.270       .  A
O2214      C3182   1.264   1_545  A
C2215      C2216   1.531       .  S
C2215      C2221   1.542       .  S
C2215      C2219   1.535       .  S
C2215      C2323   1.564       .  S
C2216      H2223   1.064       .  S
C2216      C2217   1.321       .  D
C2217      C2218   1.555       .  S
C2218      C2222   1.562       .  S
C2218      C2220   1.561       .  S
C2218      H2224   1.111       .  S
C2219      H2225   1.079       .  S
C2219      C2220   1.386       .  D
C2220      C2390   1.489       .  S
C2221      H2226   1.088       .  S
C2221      C2222   1.346       .  D
C2227      C3200   1.520       .  S
C2227      C2233   1.556       .  S
C2227      C2231   1.535       .  S
C2227      C2347   1.597       .  S
C2228      C3199   1.502   1_545  S
C2228      H2235   1.081       .  S
C2228      C2229   1.334       .  D
C2229      C3202   1.557   1_545  S
C2230      C3201   1.562       .  S
C2230      C2234   1.548       .  S
C2230      C2232   1.543       .  S
C2230      H2236   1.111       .  S
C2231      H2237   1.078       .  S
C2231      C2232   1.385       .  D
C2232      C2400   1.481       .  S
C2233      H2238   1.087       .  S
C2233      C2234   1.352       .  D
C2239      C2240   1.532       .  S
C2239      C2245   1.556       .  S
C2239      C2243   1.518       .  S
C2239      C2275   1.578       .  S
C2240      H2247   1.067       .  S
C2240      C2241   1.333       .  D
C2241      C2242   1.558       .  S
C2242      C2246   1.558       .  S
C2242      C2244   1.545       .  S
C2242      H2248   1.110       .  S
C2243      H2249   1.078       .  S
C2243      C2244   1.374       .  D
C2244      C2385   1.464       .  S
C2245      H2250   1.087       .  S
C2245      C2246   1.355       .  D
C2251      C2252   1.517       .  S
C2251      C3229   1.559       .  S
C2251      C2255   1.542       .  S
C2251      C2335   1.579       .  S
C2252      H2259   1.065       .  S
C2252      C2253   1.316       .  D
C2253      C2254   1.543       .  S
C2254      C3230   1.579       .  S
C2254      C2256   1.562       .  S
C2254      H2260   1.111       .  S
C2255      H2261   1.081   1_554  S
C2255      C2256   1.384       .  D
C2256      C2397   1.491   1_554  S
C2257      C3223   1.548   1_545  S
C2257      H2262   1.087       .  S
C2257      C2258   1.354       .  D
C2258      C3226   1.570   1_545  S
C2263      C2264   1.521       .  S
C2263      C2267   1.526       .  S
C2263      C2287   1.581       .  S
C2264      H2271   1.063       .  S
C2264      C2265   1.330       .  D
C2265      C2266   1.545       .  S
C2266      C2268   1.551       .  S
C2266      H2272   1.111       .  S
C2267      H2273   1.081       .  S
C2267      C2268   1.380       .  D
C2268      C2364   1.465       .  S
C2269      H2274   1.086       .  S
C2269      C2270   1.356       .  D
C2275      C2276   1.518       .  S
C2275      C2281   1.542       .  S
C2275      C2279   1.563       .  S
C2276      H2283   1.076       .  S
C2276      C2277   1.306       .  D
C2277      C2278   1.561       .  S
C2278      C2282   1.572       .  S
C2278      C2280   1.541       .  S
C2278      H2284   1.111       .  S
C2279      H2285   1.083       .  S
C2279      C2280   1.394       .  D
C2280      C2409   1.501       .  S
C2281      H2286   1.088       .  S
C2281      C2282   1.350       .  D
C2287      C2293   1.549       .  S
C2287      C2291   1.551       .  S
C2288      H2295   1.083       .  S
C2288      C2289   1.311       .  D
C2290      C2294   1.567       .  S
C2290      C2292   1.547       .  S
C2290      H2296   1.110       .  S
C2291      H2297   1.080   1_655  S
C2291      C2292   1.389       .  D
C2292      C2376   1.504       .  S
C2293      H2298   1.087       .  S
C2293      C2294   1.355       .  D
C2299      C2300   1.518       .  S
C2299      C2303   1.544       .  S
C2299      C2311   1.594       .  S
C2300      H2307   1.072       .  S
C2300      C2301   1.320       .  D
C2301      C2302   1.545       .  S
C2302      C2304   1.545       .  S
C2302      H2308   1.111       .  S
C2303      H2309   1.079       .  S
C2303      C2304   1.390       .  D
C2304      C2373   1.486       .  S
C2305      H2310   1.087       .  S
C2305      C2306   1.360       .  D
C2311      C2317   1.553       .  S
C2311      C2315   1.551       .  S
C2312      H2319   1.071       .  S
C2312      C2313   1.317       .  D
C2314      C2318   1.566       .  S
C2314      C2316   1.556       .  S
C2314      H2320   1.110       .  S
C2315      H2321   1.080   1_655  S
C2315      C2316   1.391       .  D
C2316      C2361   1.515       .  S
C2317      H2322   1.087       .  S
C2317      C2318   1.357       .  D
C2323      C2324   1.547       .  S
C2323      C2329   1.539       .  S
C2323      C2327   1.538       .  S
C2324      H2331   1.075       .  S
C2324      C2325   1.325       .  D
C2325      C2326   1.545       .  S
C2326      C2330   1.574       .  S
C2326      C2328   1.549       .  S
C2326      H2332   1.110       .  S
C2327      H2333   1.083       .  S
C2327      C2328   1.389       .  D
C2328      C2414   1.482       .  S
C2329      H2334   1.088       .  S
C2329      C2330   1.343       .  D
C2335      C3308   1.525       .  S
C2335      C2341   1.559       .  S
C2335      C2339   1.535       .  S
C2336      C3307   1.534   1_545  S
C2336      H2343   1.073       .  S
C2336      C2337   1.333       .  D
C2337      C3310   1.548   1_545  S
C2338      C3309   1.539       .  S
C2338      C2342   1.561       .  S
C2338      C2340   1.564       .  S
C2338      H2344   1.110       .  S
C2339      H2345   1.082       .  S
C2339      C2340   1.382       .  D
C2340      C2421   1.492       .  S
C2341      H2346   1.087       .  S
C2341      C2342   1.355       .  D
C2347      C2348   1.520       .  S
C2347      C3325   1.553       .  S
C2347      C2351   1.553       .  S
C2348      H2355   1.078       .  S
C2348      C2349   1.311       .  D
C2349      C2350   1.564       .  S
C2350      C3326   1.567       .  S
C2350      C2352   1.556       .  S
C2350      H2356   1.110       .  S
C2351      H2357   1.083       .  S
C2351      C2352   1.387       .  D
C2352      C2424   1.508       .  S
C2353      C3319   1.585   1_545  S
C2353      H2358   1.086       .  S
C2353      C2354   1.353       .  D
C2354      C3322   1.535   1_545  S
C2359      C2360   1.553       .  S
C2359      C2365   1.536       .  S
C2359      C2849   1.508       .  S
C2359      C2412   1.557       .  S
C2360      H2367   1.084       .  S
C2360      C2361   1.386       .  D
C2362      C2366   1.566       .  S
C2362      H2368   1.110       .  S
C2363      C2845   1.507   1_554  S
C2363      H2369   1.079       .  S
C2363      C2364   1.354       .  D
C2365      H2370   1.073       .  S
C2366      C2402   1.537       .  S
C2371      C2372   1.537       .  S
C2371      C2861   1.525       .  S
C2371      C2388   1.543       .  S
C2372      H2379   1.080       .  S
C2373      C2374   1.536       .  S
C2374      C2378   1.578       .  S
C2374      C2862   1.567       .  S
C2374      H2380   1.110       .  S
C2375      C2857   1.525   1_554  S
C2375      H2381   1.072       .  S
C2376      C2860   1.566   1_554  S
C2377      H2382   1.072       .  S
C2377      C2378   1.369       .  D
C2378      C2426   1.533       .  S
C2383      C2870   1.531       .  S
C2383      C2389   1.547       .  S
C2383      C2387   1.544       .  S
C2383      C2395   1.590       .  S
C2384      C2869   1.531   1_554  S
C2384      H2391   1.082       .  S
C2384      C2385   1.347       .  D
C2385      C2872   1.547   1_554  S
C2386      C2871   1.547       .  S
C2386      C2390   1.525       .  S
C2386      C2388   1.550       .  S
C2386      H2392   1.111       .  S
C2387      H2393   1.081       .  S
C2387      C2388   1.385       .  D
C2389      H2394   1.073       .  S
C2389      C2390   1.363       .  D
C2395      C2882   1.541       .  S
C2395      C3373   1.525   1_545  S
C2395      C2399   1.529       .  S
C2396      C2881   1.542   1_554  S
C2396      H2403   1.081       .  S
C2396      C3369   1.362   1_545  D
C2397      C2884   1.552       .  S
C2397      C3368   1.356       .  D
C2398      C2883   1.551       .  S
C2398      C2402   1.576       .  S
C2398      C2400   1.566       .  S
C2398      H2404   1.110       .  S
C2399      H2405   1.080       .  S
C2399      C3372   1.358   1_545  D
C2400      C3371   1.349       .  D
C2401      C3367   1.526       .  S
C2401      H2406   1.081       .  S
C2401      C2402   1.378       .  D
C2407      C2894   1.529       .  S
C2407      C2413   1.551       .  S
C2407      C2411   1.532       .  S
C2407      C2419   1.594       .  S
C2408      C2893   1.528   1_554  S
C2408      H2415   1.066       .  S
C2408      C2409   1.350       .  D
C2409      C2896   1.561   1_554  S
C2410      C2895   1.560       .  S
C2410      C2414   1.531       .  S
C2410      C2412   1.566       .  S
C2410      H2416   1.111       .  S
C2411      H2417   1.079       .  S
C2411      C2412   1.375       .  D
C2413      H2418   1.082       .  S
C2413      C2414   1.375       .  D
C2419      C2906   1.546       .  S
C2419      C2425   1.531       .  S
C2419      C2423   1.516       .  S
C2420      C2905   1.545   1_554  S
C2420      H2427   1.084       .  S
C2420      C2421   1.369       .  D
C2421      C3880   1.552   1_554  S
C2422      C3879   1.551   1_545  S
C2422      C2426   1.565       .  S
C2422      C3396   1.564   1_545  S
C2422      H2428   1.110       .  S
C2423      H2429   1.061       .  S
C2423      C2424   1.347       .  D
C2424      C3394   1.579       .  S
C2425      H2430   1.079       .  S
C2425      C3398   1.385       .  D
C2426      C3397   1.388   1_545  D
C2431      C2432   1.502       .  S
C2431      C2437   1.519       .  S
C2431      C2435   1.586       .  S
C2431      C2703   1.541       .  S
C2432      H2439   1.088       .  S
C2432      C2433   1.369       .  D
C2433      C2434   1.558       .  S
C2433      C2665   1.464       .  S
C2434      C2438   1.578       .  S
C2434      C2436   1.559       .  S
C2434      H2440   1.110       .  S
C2435      H2441   1.082       .  S
C2435      C2436   1.364       .  D
C2436      C2520   1.544       .  S
C2437      H2442   1.085       .  S
C2437      C2438   1.360       .  D
C2438      C2792   1.500       .  S
C2443      C2444   1.512       .  S
C2443      C2449   1.518       .  S
C2443      C2447   1.585       .  S
C2443      C2775   1.520       .  S
C2444      H2451   1.085       .  S
C2444      C2445   1.354       .  D
C2445      C2446   1.527       .  S
C2445      C2663   1.418       .  S
C2446      C2450   1.550       .  S
C2446      C2448   1.530       .  S
C2446      H2452   1.112       .  S
C2447      H2453   1.081       .  S
C2447      C2448   1.361       .  D
C2448      C2481   1.509       .  S
C2449      H2454   1.068       .  S
C2449      C2450   1.351       .  D
C2450      C2732   1.477       .  S
C2455      C2456   1.493       .  S
C2455      C2461   1.522       .  S
C2455      C2459   1.587       .  S
C2455      C2739   1.519       .  S
C2456      H2463   1.089       .  S
C2456      C2457   1.354       .  D
C2457      C2458   1.548       .  S
C2457      C2652   1.428       .  S
C2458      C2462   1.565       .  S
C2458      C2460   1.554       .  S
C2458      H2464   1.111       .  S
C2459      H2465   1.078       .  S
C2459      C2460   1.358       .  D
C2460      C2486   1.540       .  S
C2461      H2466   1.087       .  S
C2461      C2462   1.361       .  D
C2462      C2756   1.478       .  S
C2467      C2468   1.495       .  S
C2467      C2473   1.518       .  S
C2467      C2471   1.597       .  S
C2467      C2763   1.537       .  S
C2468      H2475   1.090       .  S
C2468      C2469   1.355       .  D
C2469      C2470   1.551       .  S
C2469      C2626   1.434       .  S
C2470      C2474   1.574       .  S
C2470      C2472   1.567       .  S
C2470      H2476   1.111       .  S
C2471      H2477   1.080       .  S
C2471      C2472   1.370       .  D
C2472      C2484   1.565       .  S
C2473      H2478   1.070       .  S
C2473      C2474   1.358       .  D
C2474      C2828   1.501       .  S
C2479      C2480   1.691       .  S
C2479      C2485   1.633       .  S
C2479      C2483   1.636       .  S
C2479      C2515   1.874       .  S
C2480      H2487   0.957       .  S
C2480      C2481   1.378       .  D
C2481      C2482   1.537       .  S
C2482      C2486   1.543       .  S
C2482      C2484   1.542       .  S
C2482      H2488   1.112       .  S
C2483      H2489   1.072       .  S
C2483      C2484   1.400       .  D
C2485      H2490   1.077       .  S
C2485      C2486   1.389       .  D
C2491      C2492   1.522       .  S
C2491      C2497   1.522       .  S
C2491      C2495   1.589       .  S
C2491      C2835   1.547       .  S
C2492      H2499   1.087       .  S
C2492      C2493   1.367       .  D
C2493      C2494   1.517       .  S
C2493      C2624   1.410       .  S
C2494      C2498   1.545       .  S
C2494      C2496   1.559       .  S
C2494      H2500   1.112       .  S
C2495      H2501   1.080       .  S
C2495      C2496   1.363       .  D
C2496      C2517   1.545       .  S
C2497      H2502   1.064       .  S
C2497      C2498   1.352       .  D
C2498      C2816   1.487       .  S
C2503      C2504   1.514       .  S
C2503      C2509   1.532       .  S
C2503      C2507   1.592       .  S
C2503      C2799   1.536       .  S
C2504      H2511   1.087       .  S
C2504      C2505   1.362       .  D
C2505      C2506   1.527       .  S
C2505      C2650   1.408       .  S
C2506      C2510   1.534       .  S
C2506      C2508   1.538       .  S
C2506      H2512   1.112       .  S
C2507      H2513   1.080       .  S
C2507      C2508   1.359       .  D
C2508      C2522   1.527       .  S
C2509      H2514   1.086       .  S
C2509      C2510   1.359       .  D
C2510      C2720   1.463       .  S
C2515      C2516   1.699       .  S
C2515      C2521   1.618       .  S
C2515      C2519   1.638       .  S
C2516      H2523   0.970       .  S
C2516      C2517   1.391       .  D
C2517      C2518   1.542       .  S
C2518      C2522   1.541       .  S
C2518      C2520   1.542       .  S
C2518      H2524   1.112       .  S
C2519      H2525   1.084       .  S
C2519      C2520   1.390       .  D
C2521      H2526   1.077       .  S
C2521      C2522   1.383       .  D
C2527      C2528   1.488       .  S
C2527      C2533   1.524       .  S
C2527      C2531   1.578       .  S
C2527      C2787   1.515       .  S
C2528      H2535   1.089       .  S
C2528      C2529   1.346       .  D
C2529      C2530   1.561       .  S
C2529      C2689   1.454       .  S
C2530      C2534   1.591       .  S
C2530      C2532   1.550       .  S
C2530      H2536   1.110       .  S
C2531      H2537   1.079       .  S
C2531      C2532   1.360       .  D
C2532      C2606   1.529       .  S
C2533      H2538   1.087       .  S
C2533      C2534   1.366       .  D
C2534      C2840   1.512       .  S
C2539      C2540   1.522       .  S
C2539      C2545   1.527       .  S
C2539      C2543   1.582       .  S
C2539      C2727   1.543       .  S
C2540      H2547   1.087       .  S
C2540      C2541   1.371       .  D
C2541      C2542   1.561       .  S
C2541      C2676   1.455       .  S
C2542      C2546   1.561       .  S
C2542      C2544   1.573       .  S
C2542      H2548   1.111       .  S
C2543      H2549   1.081       .  S
C2543      C2544   1.361       .  D
C2544      C2568   1.565       .  S
C2545      H2550   1.082       .  S
C2545      C2546   1.356       .  D
C2546      C2744   1.497       .  S
C2551      C2552   1.517       .  S
C2551      C2557   1.527       .  S
C2551      C2555   1.569       .  S
C2551      C2751   1.522       .  S
C2552      H2559   1.088       .  S
C2552      C2553   1.372       .  D
C2553      C2554   1.541       .  S
C2553      C2639   1.425       .  S
C2554      C2558   1.548       .  S
C2554      C2556   1.567       .  S
C2554      H2560   1.112       .  S
C2555      H2561   1.086       .  S
C2555      C2556   1.352       .  D
C2556      C2565   1.532       .  S
C2557      H2562   1.082       .  S
C2557      C2558   1.352       .  D
C2558      C2768   1.479       .  S
C2563      C2564   1.695       .  S
C2563      C2569   1.621       .  S
C2563      C2567   1.633       .  S
C2563      C2599   1.879       .  S
C2564      H2571   0.962       .  S
C2564      C2565   1.381       .  D
C2565      C2566   1.548       .  S
C2566      C2570   1.550       .  S
C2566      C2568   1.538       .  S
C2566      H2572   1.112       .  S
C2567      H2573   1.057       .  S
C2567      C2568   1.392       .  D
C2569      H2574   1.082       .  S
C2569      C2570   1.390       .  D
C2570      C2616   1.527       .  S
C2575      C2576   1.534       .  S
C2575      C2581   1.519       .  S
C2575      C2579   1.572       .  S
C2575      C2715   1.535       .  S
C2576      H2583   1.086       .  S
C2576      C2577   1.380       .  D
C2577      C2578   1.544       .  S
C2577      C2678   1.449       .  S
C2578      C2582   1.548       .  S
C2578      C2580   1.569       .  S
C2578      H2584   1.112       .  S
C2579      H2585   1.079       .  S
C2579      C2580   1.345       .  D
C2580      C2601   1.544       .  S
C2581      H2586   1.077       .  S
C2581      C2582   1.356       .  D
C2582      C2708   1.480       .  S
C2587      C2588   1.508       .  S
C2587      C2593   1.531       .  S
C2587      C2591   1.583       .  S
C2587      C2811   1.544       .  S
C2588      H2595   1.088       .  S
C2588      C2589   1.370       .  D
C2589      C2590   1.543       .  S
C2589      C2637   1.440       .  S
C2590      C2594   1.556       .  S
C2590      C2592   1.562       .  S
C2590      H2596   1.111       .  S
C2591      H2597   1.082       .  S
C2591      C2592   1.371       .  D
C2592      C2604   1.554       .  S
C2593      H2598   1.083       .  S
C2593      C2594   1.357       .  D
C2594      C2804   1.486       .  S
C2599      C2600   1.700       .  S
C2599      C2605   1.613       .  S
C2599      C2603   1.637       .  S
C2600      H2607   0.970       .  S
C2600      C2601   1.387       .  D
C2601      C2602   1.537       .  S
C2602      C2606   1.559       .  S
C2602      C2604   1.533       .  S
C2602      H2608   1.111       .  S
C2603      H2609   1.078       .  S
C2603      C2604   1.396       .  D
C2605      H2610   1.082       .  S
C2605      C2606   1.383       .  D
C2611      C2612   1.511       .  S
C2611      C2617   1.523       .  S
C2611      C2615   1.564       .  S
C2611      C2823   1.525       .  S
C2612      H2619   1.087       .  S
C2612      C2613   1.372       .  D
C2613      C2614   1.537       .  S
C2613      C2691   1.449       .  S
C2614      C2618   1.563       .  S
C2614      C2616   1.564       .  S
C2614      H2620   1.111       .  S
C2615      H2621   1.083       .  S
C2615      C2616   1.362       .  D
C2617      H2622   1.083       .  S
C2617      C2618   1.346       .  D
C2618      C2780   1.482       .  S
O2623      C2626   1.268       .  A
O2623     Cd2628   2.283       .  S
C2624      O2633   1.267       .  A
C2624      O2629   1.274       .  A
O2625      C2631   1.260       .  A
O2625     Cd2628   2.158       .  S
C2626      O2634   1.275       .  A
C2627      O2632   1.283       .  A
C2627      O2630   1.272       .  A
C2627      C2696   1.386       .  S
Cd2628     O2635   2.438       .  S
Cd2628     O2634   2.317       .  S
Cd2628     O2633   2.337       .  S
Cd2628     O2629   2.207       .  S
Cd2628     O2632   2.276       .  S
Cd2628     O2630   2.140       .  S
C2631      O2635   1.271       .  A
C2631      C2640   1.422       .  S
O2636      C2639   1.283       .  A
O2636     Cd2641   2.174       .  S
C2637      O2646   1.280       .  A
C2637      O2642   1.283       .  A
O2638      C2644   1.287       .  A
O2638     Cd2641   2.390       .  S
C2639      O2647   1.281       .  A
C2640      O2645   1.257       .  A
C2640      O2643   1.254       .  A
Cd2641     O2648   2.212       .  S
Cd2641     O2647   2.327       .  S
Cd2641     O2646   2.271       .  S
Cd2641     O2642   2.300       .  S
Cd2641     O2645   2.516       .  S
Cd2641     O2643   2.517       .  S
C2644      O2648   1.283       .  A
O2649      C2652   1.267       .  A
O2649     Cd2654   2.299       .  S
C2650      O2659   1.272       .  A
C2650      O2655   1.268       .  A
O2651      C2657   1.276       .  A
O2651     Cd2654   2.316       .  S
C2652      O2660   1.277       .  A
C2653      O2658   1.283       .  A
C2653      O2656   1.266       .  A
Cd2654     O2661   2.435       .  S
Cd2654     O2660   2.300       .  S
Cd2654     O2659   2.331       .  S
Cd2654     O2655   2.213       .  S
Cd2654     O2658   2.428       .  S
Cd2654     O2656   2.219       .  S
C2657      O2661   1.267       .  A
C2657      C3655   1.451       .  S
O2662      C2665   1.266       .  A
O2662     Cd2667   2.496       .  S
C2663      O2672   1.262       .  A
C2663      O2668   1.261       .  A
O2664      C2670   1.256       .  A
O2664     Cd2667   2.350       .  S
C2665      O2673   1.264       .  A
C2666      O2671   1.259       .  A
C2666      O2669   1.261       .  A
Cd2667     O2674   2.470       .  S
Cd2667     O2673   2.339       .  S
Cd2667     O2672   2.268       .  S
Cd2667     O2668   2.383       .  S
Cd2667     O2671   2.413       .  S
Cd2667     O2669   2.452       .  S
C2670      O2674   1.266       .  A
C2670      C2679   1.447       .  S
O2675      C2678   1.256       .  A
O2675     Cd2680   2.317       .  S
C2676      O2685   1.274       .  A
C2676      O2681   1.256       .  A
O2677      C2683   1.254       .  A
O2677     Cd2680   2.453       .  S
C2678      O2686   1.265       .  A
C2679      O2684   1.251       .  A
C2679      O2682   1.257       .  A
Cd2680     O2687   2.538       .  S
Cd2680     O2686   2.451       .  S
Cd2680     O2685   2.418       .  S
Cd2680     O2681   2.357       .  S
Cd2680     O2684   2.523       .  S
Cd2680     O2682   2.530       .  S
C2683      O2687   1.263       .  A
C2683      C3629   1.465   1_545  S
O2688      C2691   1.270       .  A
O2688     Cd2693   2.466       .  S
C2689      O2698   1.259       .  A
C2689      O2694   1.278       .  A
O2690      C3668   1.258   1_545  A
O2690     Cd2693   2.316       .  S
C2691      O2699   1.258       .  A
C2692      O2697   1.261   1_455  A
C2692      O2695   1.270       .  A
Cd2693     O2700   2.254       .  S
Cd2693     O2699   2.301       .  S
Cd2693     O2698   2.435       .  S
Cd2693     O2694   2.337       .  S
Cd2693     O2697   2.398       .  S
Cd2693     O2695   2.367   1_655  S
C2696      O3662   1.264       .  A
C2696      O3672   1.270       .  A
O2700      C3668   1.263   1_545  A
C2701      C2702   1.530       .  S
C2701      C2707   1.544       .  S
C2701      C2705   1.536       .  S
C2701      C2809   1.566       .  S
C2702      H2709   1.064       .  S
C2702      C2703   1.321       .  D
C2703      C2704   1.555       .  S
C2704      C2708   1.560       .  S
C2704      C2706   1.561       .  S
C2704      H2710   1.111       .  S
C2705      H2711   1.079       .  S
C2705      C2706   1.387       .  D
C2706      C2876   1.489       .  S
C2707      H2712   1.088       .  S
C2707      C2708   1.345       .  D
C2713      C3686   1.520       .  S
C2713      C2719   1.555       .  S
C2713      C2717   1.534       .  S
C2713      C2833   1.595       .  S
C2714      C3685   1.501   1_545  S
C2714      H2721   1.080       .  S
C2714      C2715   1.334       .  D
C2715      C3688   1.557   1_545  S
C2716      C3687   1.563       .  S
C2716      C2720   1.550       .  S
C2716      C2718   1.543       .  S
C2716      H2722   1.111       .  S
C2717      H2723   1.078       .  S
C2717      C2718   1.384       .  D
C2718      C2886   1.480       .  S
C2719      H2724   1.087       .  S
C2719      C2720   1.353       .  D
C2725      C2726   1.532       .  S
C2725      C2731   1.555       .  S
C2725      C2729   1.518       .  S
C2725      C2761   1.578       .  S
C2726      H2733   1.066       .  S
C2726      C2727   1.334       .  D
C2727      C2728   1.556       .  S
C2728      C2732   1.556       .  S
C2728      C2730   1.545       .  S
C2728      H2734   1.110       .  S
C2729      H2735   1.077       .  S
C2729      C2730   1.373       .  D
C2730      C2871   1.464       .  S
C2731      H2736   1.087       .  S
C2731      C2732   1.355       .  D
C2737      C2738   1.517       .  S
C2737      C3715   1.558       .  S
C2737      C2741   1.543       .  S
C2737      C2821   1.577       .  S
C2738      H2745   1.069       .  S
C2738      C2739   1.314       .  D
C2739      C2740   1.543       .  S
C2740      C3716   1.581       .  S
C2740      C2742   1.562       .  S
C2740      H2746   1.111       .  S
C2741      H2747   1.081       .  S
C2741      C2742   1.384       .  D
C2742      C2883   1.491       .  S
C2743      C3709   1.549   1_545  S
C2743      H2748   1.087       .  S
C2743      C2744   1.353       .  D
C2744      C3712   1.566   1_545  S
C2749      C2750   1.521       .  S
C2749      C2753   1.526       .  S
C2749      C2773   1.583       .  S
C2750      H2757   1.064       .  S
C2750      C2751   1.330       .  D
C2751      C2752   1.544       .  S
C2752      C2754   1.552       .  S
C2752      H2758   1.111       .  S
C2753      H2759   1.080       .  S
C2753      C2754   1.380       .  D
C2754      C2850   1.467       .  S
C2755      H2760   1.086       .  S
C2755      C2756   1.357       .  D
C2761      C2762   1.520       .  S
C2761      C2767   1.541       .  S
C2761      C2765   1.563       .  S
C2762      H2769   1.076       .  S
C2762      C2763   1.307       .  D
C2763      C2764   1.559       .  S
C2764      C2768   1.573       .  S
C2764      C2766   1.540       .  S
C2764      H2770   1.111       .  S
C2765      H2771   1.083       .  S
C2765      C2766   1.395       .  D
C2766      C2895   1.499       .  S
C2767      H2772   1.088       .  S
C2767      C2768   1.349       .  D
C2773      C2779   1.548       .  S
C2773      C2777   1.552       .  S
C2774      H2781   1.083       .  S
C2774      C2775   1.310       .  D
C2776      C2780   1.568       .  S
C2776      C2778   1.548       .  S
C2776      H2782   1.110       .  S
C2777      H2783   1.081   1_655  S
C2777      C2778   1.390       .  D
C2778      C2862   1.506       .  S
C2779      H2784   1.087       .  S
C2779      C2780   1.355       .  D
C2785      C2786   1.519       .  S
C2785      C2789   1.544       .  S
C2785      C2797   1.592       .  S
C2786      H2793   1.072       .  S
C2786      C2787   1.320       .  D
C2787      C2788   1.545       .  S
C2788      C2790   1.544       .  S
C2788      H2794   1.111       .  S
C2789      H2795   1.079       .  S
C2789      C2790   1.390       .  D
C2790      C2859   1.485       .  S
C2791      H2796   1.087       .  S
C2791      C2792   1.359       .  D
C2797      C2803   1.552       .  S
C2797      C2801   1.552       .  S
C2798      H2805   1.072       .  S
C2798      C2799   1.316       .  D
C2800      C2804   1.567       .  S
C2800      C2802   1.556       .  S
C2800      H2806   1.110       .  S
C2801      H2807   1.080   1_655  S
C2801      C2802   1.391       .  D
C2802      C2847   1.515       .  S
C2803      H2808   1.087       .  S
C2803      C2804   1.356       .  D
C2809      C2810   1.548       .  S
C2809      C2815   1.540       .  S
C2809      C2813   1.538       .  S
C2810      H2817   1.075       .  S
C2810      C2811   1.325       .  D
C2811      C2812   1.545       .  S
C2812      C2816   1.574       .  S
C2812      C2814   1.549       .  S
C2812      H2818   1.110       .  S
C2813      H2819   1.083       .  S
C2813      C2814   1.388       .  D
C2814      C2900   1.481       .  S
C2815      H2820   1.088       .  S
C2815      C2816   1.343       .  D
C2821      C3794   1.524       .  S
C2821      C2827   1.559       .  S
C2821      C2825   1.535       .  S
C2822      C3793   1.536   1_545  S
C2822      H2829   1.073       .  S
C2822      C2823   1.331       .  D
C2823      C3796   1.547   1_545  S
C2824      C3795   1.540       .  S
C2824      C2828   1.561       .  S
C2824      C2826   1.564       .  S
C2824      H2830   1.110       .  S
C2825      H2831   1.082       .  S
C2825      C2826   1.382       .  D
C2826      C2907   1.492       .  S
C2827      H2832   1.087       .  S
C2827      C2828   1.354       .  D
C2833      C2834   1.520       .  S
C2833      C3811   1.552       .  S
C2833      C2837   1.553       .  S
C2834      H2841   1.078       .  S
C2834      C2835   1.311       .  D
C2835      C2836   1.565       .  S
C2836      C3812   1.568       .  S
C2836      C2838   1.557       .  S
C2836      H2842   1.110       .  S
C2837      H2843   1.083       .  S
C2837      C2838   1.387       .  D
C2838      C2910   1.510       .  S
C2839      C3805   1.586   1_545  S
C2839      H2844   1.086       .  S
C2839      C2840   1.354       .  D
C2840      C3808   1.534   1_545  S
C2845      C2846   1.553       .  S
C2845      C2851   1.535       .  S
C2845      C2898   1.556       .  S
C2846      H2853   1.084       .  S
C2846      C2847   1.386       .  D
C2848      C2852   1.564       .  S
C2848      H2854   1.110       .  S
C2849      H2855   1.079       .  S
C2849      C2850   1.355       .  D
C2851      H2856   1.073       .  S
C2852      C2888   1.536       .  S
C2857      C2858   1.538       .  S
C2857      C2874   1.544       .  S
C2858      H2865   1.080       .  S
C2859      C2860   1.535       .  S
C2860      C2864   1.576       .  S
C2860      H2866   1.110       .  S
C2861      H2867   1.071       .  S
C2863      H2868   1.073       .  S
C2863      C2864   1.370       .  D
C2864      C2912   1.532       .  S
C2869      C2875   1.547       .  S
C2869      C2873   1.544       .  S
C2869      C2881   1.590       .  S
C2870      H2877   1.082       .  S
C2870      C2871   1.348       .  D
C2872      C2876   1.524       .  S
C2872      C2874   1.550       .  S
C2872      H2878   1.111       .  S
C2873      H2879   1.081       .  S
C2873      C2874   1.385       .  D
C2875      H2880   1.072       .  S
C2875      C2876   1.363       .  D
C2881      C3859   1.525   1_545  S
C2881      C2885   1.529       .  S
C2882      H2889   1.080       .  S
C2882      C3855   1.362   1_545  D
C2883      C3854   1.356       .  D
C2884      C2888   1.577       .  S
C2884      C2886   1.565       .  S
C2884      H2890   1.110       .  S
C2885      H2891   1.081       .  S
C2885      C3858   1.359   1_545  D
C2886      C3857   1.349       .  D
C2887      C3853   1.526       .  S
C2887      H2892   1.080       .  S
C2887      C2888   1.376       .  D
C2893      C2899   1.550       .  S
C2893      C2897   1.532       .  S
C2893      C2905   1.594       .  S
C2894      H2901   1.067       .  S
C2894      C2895   1.350       .  D
C2896      C2900   1.531       .  S
C2896      C2898   1.565       .  S
C2896      H2902   1.111       .  S
C2897      H2903   1.079       .  S
C2897      C2898   1.375       .  D
C2899      H2904   1.083       .  S
C2899      C2900   1.375       .  D
C2905      C2911   1.531       .  S
C2905      C2909   1.516       .  S
C2906      H2913   1.084       .  S
C2906      C2907   1.369       .  D
C2907      C3394   1.551       .  S
C2908      C3393   1.552   1_546  S
C2908      C2912   1.566       .  S
C2908      C3882   1.565   1_545  S
C2908      H2914   1.110       .  S
C2909      H2915   1.061       .  S
C2909      C2910   1.347       .  D
C2910      C3880   1.580       .  S
C2911      H2916   1.079       .  S
C2911      C3884   1.385       .  D
C2912      C3883   1.387   1_545  D
C2917      C2918   1.493       .  S
C2917      C2923   1.518       .  S
C2917      C2921   1.598       .  S
C2917      C3189   1.526       .  S
C2918      H2925   1.092       .  S
C2918      C2919   1.346       .  D
C2919      C2920   1.563       .  S
C2919      C3151   1.444       .  S
C2920      C2924   1.586       .  S
C2920      C2922   1.556       .  S
C2920      H2926   1.110       .  S
C2921      H2927   1.079       .  S
C2921      C2922   1.374       .  D
C2922      C3006   1.561       .  S
C2923      H2928   1.084       .  S
C2923      C2924   1.363       .  D
C2924      C3278   1.503       .  S
C2929      C2930   1.537       .  S
C2929      C2935   1.534       .  S
C2929      C2933   1.586       .  S
C2929      C3261   1.561       .  S
C2930      H2937   1.086       .  S
C2930      C2931   1.380       .  D
C2931      C2932   1.520       .  S
C2931      C3149   1.423       .  S
C2932      C2936   1.523       .  S
C2932      C2934   1.545       .  S
C2932      H2938   1.113       .  S
C2933      H2939   1.081       .  S
C2933      C2934   1.358       .  D
C2934      C2967   1.532       .  S
C2935      H2940   1.078       .  S
C2935      C2936   1.354       .  D
C2936      C3218   1.474       .  S
C2941      C2942   1.492       .  S
C2941      C2947   1.524       .  S
C2941      C2945   1.584       .  S
C2941      C3225   1.514       .  S
C2942      H2949   1.090       .  S
C2942      C2943   1.352       .  D
C2943      C2944   1.553       .  S
C2943      C3138   1.429       .  S
C2944      C2948   1.566       .  S
C2944      C2946   1.555       .  S
C2944      H2950   1.111       .  S
C2945      H2951   1.078       .  S
C2945      C2946   1.357       .  D
C2946      C2972   1.537       .  S
C2947      H2952   1.087       .  S
C2947      C2948   1.361       .  D
C2948      C3242   1.486       .  S
C2953      C2954   1.506       .  S
C2953      C2959   1.518       .  S
C2953      C2957   1.594       .  S
C2953      C3249   1.546       .  S
C2954      H2961   1.088       .  S
C2954      C2955   1.367       .  D
C2955      C2956   1.549       .  S
C2955      C3112   1.441       .  S
C2956      C2960   1.574       .  S
C2956      C2958   1.577       .  S
C2956      H2962   1.111       .  S
C2957      H2963   1.081       .  S
C2957      C2958   1.368       .  D
C2958      C2970   1.571       .  S
C2959      H2964   1.074       .  S
C2959      C2960   1.352       .  D
C2960      C3314   1.504       .  S
C2965      C2966   1.693       .  S
C2965      C2971   1.630       .  S
C2965      C2969   1.640       .  S
C2965      C3001   1.883       .  S
C2966      H2973   0.964       .  S
C2966      C2967   1.387       .  D
C2967      C2968   1.541       .  S
C2968      C2972   1.545       .  S
C2968      C2970   1.544       .  S
C2968      H2974   1.112       .  S
C2969      H2975   1.075       .  S
C2969      C2970   1.400       .  D
C2971      H2976   1.078       .  S
C2971      C2972   1.390       .  D
C2977      C2978   1.521       .  S
C2977      C2983   1.512       .  S
C2977      C2981   1.570       .  S
C2977      C3321   1.499       .  S
C2978      H2985   1.087       .  S
C2978      C2979   1.366       .  D
C2979      C2980   1.525       .  S
C2979      C3110   1.411       .  S
C2980      C2984   1.541       .  S
C2980      C2982   1.563       .  S
C2980      H2986   1.112       .  S
C2981      H2987   1.084       .  S
C2981      C2982   1.362       .  D
C2982      C3003   1.535       .  S
C2983      H2988   1.080       .  S
C2983      C2984   1.339       .  D
C2984      C3302   1.462       .  S
C2989      C2990   1.514       .  S
C2989      C2995   1.536       .  S
C2989      C2993   1.592       .  S
C2989      C3285   1.532       .  S
C2990      H2997   1.087       .  S
C2990      C2991   1.356       .  D
C2991      C2992   1.514       .  S
C2991      C3136   1.395       .  S
C2992      C2996   1.533       .  S
C2992      C2994   1.530       .  S
C2992      H2998   1.113       .  S
C2993      H2999   1.080       .  S
C2993      C2994   1.360       .  D
C2994      C3008   1.525       .  S
C2995      H3000   1.086       .  S
C2995      C2996   1.365       .  D
C2996      C3206   1.461       .  S
C3001      C3002   1.698       .  S
C3001      C3007   1.616       .  S
C3001      C3005   1.636       .  S
C3002      H3009   0.969       .  S
C3002      C3003   1.391       .  D
C3003      C3004   1.535       .  S
C3004      C3008   1.543       .  S
C3004      C3006   1.533       .  S
C3004      H3010   1.112       .  S
C3005      H3011   1.074       .  S
C3005      C3006   1.403       .  D
C3007      H3012   1.077       .  S
C3007      C3008   1.386       .  D
C3013      C3014   1.501       .  S
C3013      C3019   1.521       .  S
C3013      C3017   1.579       .  S
C3013      C3273   1.520       .  S
C3014      H3021   1.088       .  S
C3014      C3015   1.367       .  D
C3015      C3016   1.547       .  S
C3015      C3175   1.440       .  S
C3016      C3020   1.567       .  S
C3016      C3018   1.555       .  S
C3016      H3022   1.111       .  S
C3017      H3023   1.084       .  S
C3017      C3018   1.360       .  D
C3018      C3092   1.535       .  S
C3019      H3024   1.087       .  S
C3019      C3020   1.353       .  D
C3020      C3326   1.482       .  S
C3025      C3026   1.521       .  S
C3025      C3031   1.545       .  S
C3025      C3029   1.587       .  S
C3025      C3213   1.570       .  S
C3026      H3033   1.086       .  S
C3026      C3027   1.369       .  D
C3027      C3028   1.561       .  S
C3027      C3162   1.455       .  S
C3028      C3032   1.563       .  S
C3028      C3030   1.578       .  S
C3028      H3034   1.111       .  S
C3029      H3035   1.080       .  S
C3029      C3030   1.366       .  D
C3030      C3054   1.579       .  S
C3031      H3036   1.081       .  S
C3031      C3032   1.368       .  D
C3032      C3230   1.522       .  S
C3037      C3038   1.513       .  S
C3037      C3043   1.532       .  S
C3037      C3041   1.576       .  S
C3037      C3237   1.529       .  S
C3038      H3045   1.088       .  S
C3038      C3039   1.368       .  D
C3039      C3040   1.541       .  S
C3039      C3125   1.417       .  S
C3040      C3044   1.541       .  S
C3040      C3042   1.560       .  S
C3040      H3046   1.112       .  S
C3041      H3047   1.084       .  S
C3041      C3042   1.355       .  D
C3042      C3051   1.533       .  S
C3043      H3048   1.082       .  S
C3043      C3044   1.357       .  D
C3044      C3254   1.478       .  S
C3049      C3050   1.697       .  S
C3049      C3055   1.615       .  S
C3049      C3053   1.640       .  S
C3049      C3085   1.886       .  S
C3050      H3057   0.965       .  S
C3050      C3051   1.385       .  D
C3051      C3052   1.547       .  S
C3052      C3056   1.549       .  S
C3052      C3054   1.543       .  S
C3052      H3058   1.112       .  S
C3053      H3059   1.059       .  S
C3053      C3054   1.395       .  D
C3055      H3060   1.079       .  S
C3055      C3056   1.389       .  D
C3056      C3102   1.523       .  S
C3061      C3062   1.537       .  S
C3061      C3067   1.526       .  S
C3061      C3065   1.579       .  S
C3061      C3201   1.555       .  S
C3062      H3069   1.086       .  S
C3062      C3063   1.385       .  D
C3063      C3064   1.557       .  S
C3063      C3164   1.462       .  S
C3064      C3068   1.549       .  S
C3064      C3066   1.575       .  S
C3064      H3070   1.112       .  S
C3065      H3071   1.085       .  S
C3065      C3066   1.354       .  D
C3066      C3087   1.559       .  S
C3067      H3072   1.082       .  S
C3067      C3068   1.351       .  D
C3068      C3194   1.489       .  S
C3073      C3074   1.505       .  S
C3073      C3079   1.524       .  S
C3073      C3077   1.575       .  S
C3073      C3297   1.523       .  S
C3074      H3081   1.088       .  S
C3074      C3075   1.372       .  D
C3075      C3076   1.549       .  S
C3075      C3123   1.443       .  S
C3076      C3080   1.566       .  S
C3076      C3078   1.573       .  S
C3076      H3082   1.111       .  S
C3077      H3083   1.084       .  S
C3077      C3078   1.358       .  D
C3078      C3090   1.550       .  S
C3079      H3084   1.084       .  S
C3079      C3080   1.352       .  D
C3080      C3290   1.489       .  S
C3085      C3086   1.699       .  S
C3085      C3091   1.623       .  S
C3085      C3089   1.635       .  S
C3086      H3093   0.969       .  S
C3086      C3087   1.384       .  D
C3087      C3088   1.553       .  S
C3088      C3092   1.552       .  S
C3088      C3090   1.544       .  S
C3088      H3094   1.112       .  S
C3089      H3095   1.080       .  S
C3089      C3090   1.393       .  D
C3091      H3096   1.077       .  S
C3091      C3092   1.391       .  D
C3097      C3098   1.505       .  S
C3097      C3103   1.528       .  S
C3097      C3101   1.567       .  S
C3097      C3309   1.514       .  S
C3098      H3105   1.088       .  S
C3098      C3099   1.367       .  D
C3099      C3100   1.532       .  S
C3099      C3177   1.424       .  S
C3100      C3104   1.556       .  S
C3100      C3102   1.557       .  S
C3100      H3106   1.111       .  S
C3101      H3107   1.083       .  S
C3101      C3102   1.354       .  D
C3103      H3108   1.085       .  S
C3103      C3104   1.353       .  D
C3104      C3266   1.479       .  S
O3109      C3112   1.269       .  A
O3109     Cd3114   2.329       .  S
C3110      O3119   1.266       .  A
C3110      O3115   1.274       .  A
O3111      C3117   1.261       .  A
O3111     Cd3114   2.144       .  S
C3112      O3120   1.270       .  A
C3113      O3118   1.276       .  A
C3113      O3116   1.272       .  A
C3113      C3182   1.383       .  S
Cd3114     O3121   2.464       .  S
Cd3114     O3120   2.330       .  S
Cd3114     O3119   2.338       .  S
Cd3114     O3115   2.194       .  S
Cd3114     O3118   2.241       .  S
Cd3114     O3116   2.193       .  S
C3117      O3121   1.273       .  A
C3117      C3126   1.427       .  S
O3122      C3125   1.284       .  A
O3122     Cd3127   2.166       .  S
C3123      O3132   1.282       .  A
C3123      O3128   1.284       .  A
O3124      C3130   1.286       .  A
O3124     Cd3127   2.428       .  S
C3125      O3133   1.279       .  A
C3126      O3131   1.259       .  A
C3126      O3129   1.257       .  A
Cd3127     O3134   2.202       .  S
Cd3127     O3133   2.320       .  S
Cd3127     O3132   2.231       .  S
Cd3127     O3128   2.310       .  S
Cd3127     O3131   2.514       .  S
Cd3127     O3129   2.510       .  S
C3130      O3134   1.280       .  A
O3135      C3138   1.265       .  A
O3135     Cd3140   2.298       .  S
C3136      O3145   1.272       .  A
C3136      O3141   1.265       .  A
O3137      C3143   1.272   1_545  A
O3137     Cd3140   2.341   1_545  S
C3138      O3146   1.277       .  A
C3139      O3144   1.283       .  A
C3139      O3142   1.261       .  A
Cd3140     O3147   2.484       .  S
Cd3140     O3146   2.304       .  S
Cd3140     O3145   2.329       .  S
Cd3140     O3141   2.200       .  S
Cd3140     O3144   2.480       .  S
Cd3140     O3142   2.198       .  S
C3143      O3147   1.266       .  A
O3148      C3151   1.266       .  A
O3148     Cd3153   2.254       .  S
C3149      O3158   1.269       .  A
C3149      O3154   1.273       .  A
O3150      C3156   1.268       .  A
O3150     Cd3153   2.131       .  S
C3151      O3159   1.274       .  A
C3152      O3157   1.284       .  A
C3152      O3155   1.279       .  A
Cd3153     O3160   2.415       .  S
Cd3153     O3159   2.377       .  S
Cd3153     O3158   2.391       .  S
Cd3153     O3154   2.188       .  S
Cd3153     O3157   2.175       .  S
Cd3153     O3155   2.225       .  S
C3156      O3160   1.272       .  A
C3156      C3165   1.418       .  S
O3161      C3164   1.258       .  A
O3161     Cd3166   2.351       .  S
C3162      O3171   1.276       .  A
C3162      O3167   1.255       .  A
O3163      C3169   1.252       .  A
O3163     Cd3166   2.433       .  S
C3164      O3172   1.270       .  A
C3165      O3170   1.250       .  A
C3165      O3168   1.253       .  A
Cd3166     O3173   2.536       .  S
Cd3166     O3172   2.499       .  S
Cd3166     O3171   2.457       .  S
Cd3166     O3167   2.348       .  S
Cd3166     O3170   2.520       .  S
Cd3166     O3168   2.541       .  S
C3169      O3173   1.260       .  A
O3174      C3177   1.271       .  A
O3174     Cd3179   2.365       .  S
C3175      O3184   1.261       .  A
C3175      O3180   1.269       .  A
O3176     Cd3179   2.293       .  S
C3177      O3185   1.261       .  A
C3178      O3183   1.261   1_455  A
C3178      O3181   1.271   1_455  A
Cd3179     O3186   2.194       .  S
Cd3179     O3185   2.291       .  S
Cd3179     O3184   2.313       .  S
Cd3179     O3180   2.407       .  S
Cd3179     O3183   2.195       .  S
Cd3179     O3181   2.268       .  S
C3187      C3188   1.546       .  S
C3187      C3193   1.544       .  S
C3187      C3191   1.536       .  S
C3187      C3295   1.564       .  S
C3188      H3195   1.073       .  S
C3188      C3189   1.311       .  D
C3189      C3190   1.541       .  S
C3190      C3194   1.572       .  S
C3190      C3192   1.546       .  S
C3190      H3196   1.111       .  S
C3191      H3197   1.079       .  S
C3191      C3192   1.383       .  D
C3192      C3362   1.474       .  S
C3193      H3198   1.088       .  S
C3193      C3194   1.351       .  D
C3199      C3205   1.562       .  S
C3199      C3203   1.556       .  S
C3199      C3319   1.630       .  S
C3200      H3207   1.060       .  S
C3200      C3201   1.337       .  D
C3202      C3206   1.543       .  S
C3202      C3204   1.526       .  S
C3202      H3208   1.111       .  S
C3203      H3209   1.075       .  S
C3203      C3204   1.386       .  D
C3204      C3372   1.490       .  S
C3205      H3210   1.079       .  S
C3205      C3206   1.351       .  D
C3211      C3212   1.543       .  S
C3211      C3217   1.542       .  S
C3211      C3215   1.542       .  S
C3211      C3247   1.584       .  S
C3212      H3219   1.070       .  S
C3212      C3213   1.330       .  D
C3213      C3214   1.562       .  S
C3214      C3218   1.572       .  S
C3214      C3216   1.522       .  S
C3214      H3220   1.111       .  S
C3215      H3221   1.078       .  S
C3215      C3216   1.391       .  D
C3216      C3357   1.466       .  S
C3217      H3222   1.088       .  S
C3217      C3218   1.345       .  D
C3223      C3224   1.521       .  S
C3223      C3227   1.542       .  S
C3223      C3307   1.567       .  S
C3224      H3231   1.065       .  S
C3224      C3225   1.315       .  D
C3225      C3226   1.540       .  S
C3226      C3228   1.558       .  S
C3226      H3232   1.111       .  S
C3227      H3233   1.078   1_554  S
C3227      C3228   1.385       .  D
C3228      C3369   1.491       .  S
C3229      H3234   1.087       .  S
C3229      C3230   1.360       .  D
C3235      C3236   1.521       .  S
C3235      C3239   1.535       .  S
C3235      C3259   1.593       .  S
C3236      H3243   1.063       .  S
C3236      C3237   1.329       .  D
C3237      C3238   1.549       .  S
C3238      C3240   1.549       .  S
C3238      H3244   1.111       .  S
C3239      H3245   1.079       .  S
C3239      C3240   1.384       .  D
C3240      C3336   1.481       .  S
C3241      H3246   1.087       .  S
C3241      C3242   1.361       .  D
C3247      C3248   1.534       .  S
C3247      C3253   1.543       .  S
C3247      C3251   1.546       .  S
C3248      H3255   1.064       .  S
C3248      C3249   1.318       .  D
C3249      C3250   1.559       .  S
C3250      C3254   1.563       .  S
C3250      C3252   1.550       .  S
C3250      H3256   1.111       .  S
C3251      H3257   1.083   1_554  S
C3251      C3252   1.389       .  D
C3252      C3381   1.492       .  S
C3253      H3258   1.087       .  S
C3253      C3254   1.354       .  D
C3259      C3265   1.545       .  S
C3259      C3263   1.549       .  S
C3260      H3267   1.073       .  S
C3260      C3261   1.328       .  D
C3262      C3266   1.573       .  S
C3262      C3264   1.553       .  S
C3262      H3268   1.110       .  S
C3263      H3269   1.083   1_655  S
C3263      C3264   1.388       .  D
C3264      C3348   1.507       .  S
C3265      H3270   1.088       .  S
C3265      C3266   1.353       .  D
C3271      C3272   1.528       .  S
C3271      C3275   1.533       .  S
C3271      C3283   1.591       .  S
C3272      H3279   1.067       .  S
C3272      C3273   1.327       .  D
C3273      C3274   1.545       .  S
C3274      C3276   1.562       .  S
C3274      H3280   1.110       .  S
C3275      H3281   1.082       .  S
C3275      C3276   1.381       .  D
C3276      C3345   1.488       .  S
C3277      H3282   1.087       .  S
C3277      C3278   1.362       .  D
C3283      C3289   1.546       .  S
C3283      C3287   1.561       .  S
C3284      H3291   1.077       .  S
C3284      C3285   1.315       .  D
C3286      C3290   1.572       .  S
C3286      C3288   1.555       .  S
C3286      H3292   1.110       .  S
C3287      H3293   1.080   1_655  S
C3287      C3288   1.398       .  D
C3288      C3333   1.519       .  S
C3289      H3294   1.088       .  S
C3289      C3290   1.350       .  D
C3295      C3296   1.534       .  S
C3295      C3301   1.534       .  S
C3295      C3299   1.544       .  S
C3296      H3303   1.070       .  S
C3296      C3297   1.325       .  D
C3297      C3298   1.538       .  S
C3298      C3302   1.558       .  S
C3298      C3300   1.549       .  S
C3298      H3304   1.110       .  S
C3299      H3305   1.082       .  S
C3299      C3300   1.397       .  D
C3300      C3386   1.487       .  S
C3301      H3306   1.089       .  S
C3301      C3302   1.333       .  D
C3307      C3313   1.552       .  S
C3307      C3311   1.530   1_565  S
C3308      H3315   1.070       .  S
C3308      C3309   1.330       .  D
C3310      C3314   1.567       .  S
C3310      C3312   1.578       .  S
C3310      H3316   1.110       .  S
C3311      H3317   1.080       .  S
C3311      C3312   1.379   1_545  D
C3312      C3393   1.500       .  S
C3313      H3318   1.088       .  S
C3313      C3314   1.348       .  D
C3319      C3320   1.497       .  S
C3319      C3323   1.551       .  S
C3320      H3327   1.086       .  S
C3320      C3321   1.322       .  D
C3321      C3322   1.545       .  S
C3322      C3324   1.588       .  S
C3322      H3328   1.110       .  S
C3323      H3329   1.080       .  S
C3323      C3324   1.399       .  D
C3324      C3396   1.512       .  S
C3325      H3330   1.087       .  S
C3325      C3326   1.361       .  D
C3331      C3332   1.551       .  S
C3331      C3337   1.532       .  S
C3331      C3821   1.518       .  S
C3331      C3384   1.568       .  S
C3332      H3339   1.085       .  S
C3332      C3333   1.386       .  D
C3334      C3338   1.574       .  S
C3334      H3340   1.110       .  S
C3335      C3817   1.519   1_554  S
C3335      H3341   1.080       .  S
C3335      C3336   1.362       .  D
C3337      H3342   1.073       .  S
C3338      C3374   1.546       .  S
C3343      C3344   1.530       .  S
C3343      C3833   1.520       .  S
C3343      C3360   1.540       .  S
C3344      H3351   1.081       .  S
C3345      C3346   1.547       .  S
C3346      C3350   1.582       .  S
C3346      C3834   1.583       .  S
C3346      H3352   1.110       .  S
C3347      C3829   1.519   1_554  S
C3347      H3353   1.081       .  S
C3348      C3832   1.583   1_554  S
C3349      H3354   1.073       .  S
C3349      C3350   1.377       .  D
C3350      C3398   1.556       .  S
C3355      C3842   1.530       .  S
C3355      C3361   1.542       .  S
C3355      C3359   1.530       .  S
C3355      C3367   1.562       .  S
C3356      C3841   1.530   1_554  S
C3356      H3363   1.082       .  S
C3356      C3357   1.348       .  D
C3357      C3844   1.543   1_554  S
C3358      C3843   1.544       .  S
C3358      C3362   1.523       .  S
C3358      C3360   1.566       .  S
C3358      H3364   1.111       .  S
C3359      H3365   1.080       .  S
C3359      C3360   1.372       .  D
C3361      H3366   1.078       .  S
C3361      C3362   1.360       .  D
C3367      C3854   1.537       .  S
C3367      C3371   1.526       .  S
C3368      C3853   1.535       .  S
C3368      H3375   1.082   1_556  S
C3369      C3856   1.548   1_554  S
C3370      C3855   1.547       .  S
C3370      C3374   1.582       .  S
C3370      C3372   1.559       .  S
C3370      H3376   1.110       .  S
C3371      H3377   1.084       .  S
C3373      H3378   1.079       .  S
C3373      C3374   1.382       .  D
C3379      C3866   1.535       .  S
C3379      C3385   1.554       .  S
C3379      C3383   1.552       .  S
C3379      C3391   1.628       .  S
C3380      C3865   1.534   1_554  S
C3380      H3387   1.070       .  S
C3380      C3381   1.349       .  D
C3381      C3868   1.551   1_554  S
C3382      C3867   1.552       .  S
C3382      C3386   1.528       .  S
C3382      C3384   1.557       .  S
C3382      H3388   1.111       .  S
C3383      H3389   1.077       .  S
C3383      C3384   1.382       .  D
C3385      H3390   1.080       .  S
C3385      C3386   1.383       .  D
C3391      C3878   1.551       .  S
C3391      C3397   1.529       .  S
C3391      C3395   1.535       .  S
C3392      C3877   1.552   1_554  S
C3392      H3399   1.081       .  S
C3392      C3393   1.362       .  D
C3394      C3398   1.580       .  S
C3394      H3400   1.110       .  S
C3395      H3401   1.065       .  S
C3395      C3396   1.365       .  D
C3397      H3402   1.077       .  S
C3403      C3404   1.493       .  S
C3403      C3409   1.517       .  S
C3403      C3407   1.599       .  S
C3403      C3675   1.524       .  S
C3404      H3411   1.092       .  S
C3404      C3405   1.344       .  D
C3405      C3406   1.564       .  S
C3405      C3637   1.445       .  S
C3406      C3410   1.585       .  S
C3406      C3408   1.554       .  S
C3406      H3412   1.110       .  S
C3407      H3413   1.079       .  S
C3407      C3408   1.374       .  D
C3408      C3492   1.561       .  S
C3409      H3414   1.085       .  S
C3409      C3410   1.362       .  D
C3410      C3764   1.501       .  S
C3415      C3416   1.536       .  S
C3415      C3421   1.532       .  S
C3415      C3419   1.587       .  S
C3415      C3747   1.560       .  S
C3416      H3423   1.086       .  S
C3416      C3417   1.379       .  D
C3417      C3418   1.519       .  S
C3417      C3635   1.423       .  S
C3418      C3422   1.527       .  S
C3418      C3420   1.546       .  S
C3418      H3424   1.113       .  S
C3419      H3425   1.081       .  S
C3419      C3420   1.358       .  D
C3420      C3453   1.532       .  S
C3421      H3426   1.077       .  S
C3421      C3422   1.353       .  D
C3422      C3704   1.473       .  S
C3427      C3428   1.492       .  S
C3427      C3433   1.524       .  S
C3427      C3431   1.583       .  S
C3427      C3711   1.513       .  S
C3428      H3435   1.090       .  S
C3428      C3429   1.353       .  D
C3429      C3430   1.554       .  S
C3429      C3624   1.427       .  S
C3430      C3434   1.564       .  S
C3430      C3432   1.556       .  S
C3430      H3436   1.111       .  S
C3431      H3437   1.079       .  S
C3431      C3432   1.356       .  D
C3432      C3458   1.537       .  S
C3433      H3438   1.087       .  S
C3433      C3434   1.361       .  D
C3434      C3728   1.486       .  S
C3439      C3440   1.507       .  S
C3439      C3445   1.516       .  S
C3439      C3443   1.594       .  S
C3439      C3735   1.546       .  S
C3440      H3447   1.088       .  S
C3440      C3441   1.368       .  D
C3441      C3442   1.549       .  S
C3441      C3598   1.443       .  S
C3442      C3446   1.575       .  S
C3442      C3444   1.577       .  S
C3442      H3448   1.111       .  S
C3443      H3449   1.081       .  S
C3443      C3444   1.369       .  D
C3444      C3456   1.572       .  S
C3445      H3450   1.073       .  S
C3445      C3446   1.352       .  D
C3446      C3800   1.503       .  S
C3451      C3452   1.692       .  S
C3451      C3457   1.629       .  S
C3451      C3455   1.642       .  S
C3451      C3487   1.884       .  S
C3452      H3459   0.965       .  S
C3452      C3453   1.387       .  D
C3453      C3454   1.541       .  S
C3454      C3458   1.546       .  S
C3454      C3456   1.544       .  S
C3454      H3460   1.112       .  S
C3455      H3461   1.075       .  S
C3455      C3456   1.401       .  D
C3457      H3462   1.079       .  S
C3457      C3458   1.388       .  D
C3463      C3464   1.522       .  S
C3463      C3469   1.511       .  S
C3463      C3467   1.569       .  S
C3463      C3807   1.499       .  S
C3464      H3471   1.087       .  S
C3464      C3465   1.367       .  D
C3465      C3466   1.524       .  S
C3465      C3596   1.414       .  S
C3466      C3470   1.543       .  S
C3466      C3468   1.563       .  S
C3466      H3472   1.112       .  S
C3467      H3473   1.084       .  S
C3467      C3468   1.362       .  D
C3468      C3489   1.534       .  S
C3469      H3474   1.080       .  S
C3469      C3470   1.338       .  D
C3470      C3788   1.462       .  S
C3475      C3476   1.514       .  S
C3475      C3481   1.535       .  S
C3475      C3479   1.592       .  S
C3475      C3771   1.532       .  S
C3476      H3483   1.087       .  S
C3476      C3477   1.356       .  D
C3477      C3478   1.514       .  S
C3477      C3622   1.396       .  S
C3478      C3482   1.534       .  S
C3478      C3480   1.529       .  S
C3478      H3484   1.113       .  S
C3479      H3485   1.080       .  S
C3479      C3480   1.360       .  D
C3480      C3494   1.523       .  S
C3481      H3486   1.086       .  S
C3481      C3482   1.365       .  D
C3482      C3692   1.462       .  S
C3487      C3488   1.697       .  S
C3487      C3493   1.616       .  S
C3487      C3491   1.638       .  S
C3488      H3495   0.969       .  S
C3488      C3489   1.391       .  D
C3489      C3490   1.534       .  S
C3490      C3494   1.541       .  S
C3490      C3492   1.531       .  S
C3490      H3496   1.112       .  S
C3491      H3497   1.075       .  S
C3491      C3492   1.404       .  D
C3493      H3498   1.077       .  S
C3493      C3494   1.385       .  D
C3499      C3500   1.501       .  S
C3499      C3505   1.522       .  S
C3499      C3503   1.579       .  S
C3499      C3759   1.521       .  S
C3500      H3507   1.088       .  S
C3500      C3501   1.367       .  D
C3501      C3502   1.547       .  S
C3501      C3661   1.439       .  S
C3502      C3506   1.565       .  S
C3502      C3504   1.555       .  S
C3502      H3508   1.111       .  S
C3503      H3509   1.084       .  S
C3503      C3504   1.360       .  D
C3504      C3578   1.535       .  S
C3505      H3510   1.087       .  S
C3505      C3506   1.354       .  D
C3506      C3812   1.482       .  S
C3511      C3512   1.521       .  S
C3511      C3517   1.544       .  S
C3511      C3515   1.586       .  S
C3511      C3699   1.569       .  S
C3512      H3519   1.086       .  S
C3512      C3513   1.369       .  D
C3513      C3514   1.560       .  S
C3513      C3648   1.456       .  S
C3514      C3518   1.565       .  S
C3514      C3516   1.580       .  S
C3514      H3520   1.111       .  S
C3515      H3521   1.080       .  S
C3515      C3516   1.366       .  D
C3516      C3540   1.580       .  S
C3517      H3522   1.081       .  S
C3517      C3518   1.367       .  D
C3518      C3716   1.521       .  S
C3523      C3524   1.514       .  S
C3523      C3529   1.531       .  S
C3523      C3527   1.576       .  S
C3523      C3723   1.529       .  S
C3524      H3531   1.088       .  S
C3524      C3525   1.368       .  D
C3525      C3526   1.542       .  S
C3525      C3611   1.418       .  S
C3526      C3530   1.539       .  S
C3526      C3528   1.560       .  S
C3526      H3532   1.112       .  S
C3527      H3533   1.085       .  S
C3527      C3528   1.356       .  D
C3528      C3537   1.534       .  S
C3529      H3534   1.082       .  S
C3529      C3530   1.356       .  D
C3530      C3740   1.476       .  S
C3535      C3536   1.696       .  S
C3535      C3541   1.614       .  S
C3535      C3539   1.642       .  S
C3535      C3571   1.886       .  S
C3536      H3543   0.964       .  S
C3536      C3537   1.384       .  D
C3537      C3538   1.548       .  S
C3538      C3542   1.549       .  S
C3538      C3540   1.544       .  S
C3538      H3544   1.112       .  S
C3539      H3545   1.059       .  S
C3539      C3540   1.395       .  D
C3541      H3546   1.078       .  S
C3541      C3542   1.390       .  D
C3542      C3588   1.523       .  S
C3547      C3548   1.537       .  S
C3547      C3553   1.527       .  S
C3547      C3551   1.579       .  S
C3547      C3687   1.557       .  S
C3548      H3555   1.086       .  S
C3548      C3549   1.386       .  D
C3549      C3550   1.557       .  S
C3549      C3650   1.463       .  S
C3550      C3554   1.550       .  S
C3550      C3552   1.575       .  S
C3550      H3556   1.112       .  S
C3551      H3557   1.085       .  S
C3551      C3552   1.353       .  D
C3552      C3573   1.558       .  S
C3553      H3558   1.082       .  S
C3553      C3554   1.351       .  D
C3554      C3680   1.491       .  S
C3559      C3560   1.504       .  S
C3559      C3565   1.525       .  S
C3559      C3563   1.577       .  S
C3559      C3783   1.523       .  S
C3560      H3567   1.088       .  S
C3560      C3561   1.371       .  D
C3561      C3562   1.549       .  S
C3561      C3609   1.442       .  S
C3562      C3566   1.565       .  S
C3562      C3564   1.573       .  S
C3562      H3568   1.111       .  S
C3563      H3569   1.084       .  S
C3563      C3564   1.359       .  D
C3564      C3576   1.551       .  S
C3565      H3570   1.084       .  S
C3565      C3566   1.352       .  D
C3566      C3776   1.489       .  S
C3571      C3572   1.699       .  S
C3571      C3577   1.622       .  S
C3571      C3575   1.636       .  S
C3572      H3579   0.969       .  S
C3572      C3573   1.384       .  D
C3573      C3574   1.552       .  S
C3574      C3578   1.553       .  S
C3574      C3576   1.543       .  S
C3574      H3580   1.111       .  S
C3575      H3581   1.079       .  S
C3575      C3576   1.393       .  D
C3577      H3582   1.077       .  S
C3577      C3578   1.390       .  D
C3583      C3584   1.505       .  S
C3583      C3589   1.527       .  S
C3583      C3587   1.567       .  S
C3583      C3795   1.514       .  S
C3584      H3591   1.088       .  S
C3584      C3585   1.367       .  D
C3585      C3586   1.533       .  S
C3585      C3663   1.425       .  S
C3586      C3590   1.557       .  S
C3586      C3588   1.557       .  S
C3586      H3592   1.111       .  S
C3587      H3593   1.083       .  S
C3587      C3588   1.355       .  D
C3589      H3594   1.085       .  S
C3589      C3590   1.352       .  D
C3590      C3752   1.479       .  S
O3595      C3598   1.269       .  A
O3595     Cd3600   2.334       .  S
C3596      O3605   1.265       .  A
C3596      O3601   1.274       .  A
O3597      C3603   1.260       .  A
O3597     Cd3600   2.142       .  S
C3598      O3606   1.271       .  A
C3599      O3604   1.277       .  A
C3599      O3602   1.272       .  A
C3599      C3668   1.383       .  S
Cd3600     O3607   2.462       .  S
Cd3600     O3606   2.332       .  S
Cd3600     O3605   2.343       .  S
Cd3600     O3601   2.199       .  S
Cd3600     O3604   2.241       .  S
Cd3600     O3602   2.191       .  S
C3603      O3607   1.274       .  A
C3603      C3612   1.426       .  S
O3608      C3611   1.284       .  A
O3608     Cd3613   2.157       .  S
C3609      O3618   1.282       .  A
C3609      O3614   1.283       .  A
O3610      C3616   1.286       .  A
O3610     Cd3613   2.419       .  S
C3611      O3619   1.280       .  A
C3612      O3617   1.260       .  A
C3612      O3615   1.256       .  A
Cd3613     O3620   2.210       .  S
Cd3613     O3619   2.320       .  S
Cd3613     O3618   2.236       .  S
Cd3613     O3614   2.301       .  S
Cd3613     O3617   2.514       .  S
Cd3613     O3615   2.514       .  S
C3616      O3620   1.281       .  A
O3621      C3624   1.265       .  A
O3621     Cd3626   2.286       .  S
C3622      O3631   1.271       .  A
C3622      O3627   1.265       .  A
O3623      C3629   1.271   1_545  A
O3623     Cd3626   2.337   1_545  S
C3624      O3632   1.278       .  A
C3625      O3630   1.283       .  A
C3625      O3628   1.261       .  A
Cd3626     O3633   2.486       .  S
Cd3626     O3632   2.302       .  S
Cd3626     O3631   2.325       .  S
Cd3626     O3627   2.206       .  S
Cd3626     O3630   2.484       .  S
Cd3626     O3628   2.201       .  S
C3629      O3633   1.266       .  A
O3634      C3637   1.267       .  A
O3634     Cd3639   2.250       .  S
C3635      O3644   1.269       .  A
C3635      O3640   1.273       .  A
O3636      C3642   1.268       .  A
O3636     Cd3639   2.134       .  S
C3637      O3645   1.274       .  A
C3638      O3643   1.284       .  A
C3638      O3641   1.279       .  A
Cd3639     O3646   2.415       .  S
Cd3639     O3645   2.379       .  S
Cd3639     O3644   2.389       .  S
Cd3639     O3640   2.197       .  S
Cd3639     O3643   2.180       .  S
Cd3639     O3641   2.229       .  S
C3642      O3646   1.273       .  A
C3642      C3651   1.418       .  S
O3647      C3650   1.258       .  A
O3647     Cd3652   2.353       .  S
C3648      O3657   1.275       .  A
C3648      O3653   1.255       .  A
O3649      C3655   1.252       .  A
O3649     Cd3652   2.432       .  S
C3650      O3658   1.270       .  A
C3651      O3656   1.250       .  A
C3651      O3654   1.252       .  A
Cd3652     O3659   2.536       .  S
Cd3652     O3658   2.499       .  S
Cd3652     O3657   2.453       .  S
Cd3652     O3653   2.355       .  S
Cd3652     O3656   2.514       .  S
Cd3652     O3654   2.544       .  S
C3655      O3659   1.260       .  A
O3660      C3663   1.271       .  A
O3660     Cd3665   2.365       .  S
C3661      O3670   1.261       .  A
C3661      O3666   1.269       .  A
O3662     Cd3665   2.288       .  S
C3663      O3671   1.261       .  A
C3664      O3669   1.262       .  A
C3664      O3667   1.271       .  A
Cd3665     O3672   2.192       .  S
Cd3665     O3671   2.293       .  S
Cd3665     O3670   2.310       .  S
Cd3665     O3666   2.403       .  S
Cd3665     O3669   2.201       .  S
Cd3665     O3667   2.259       .  S
C3673      C3674   1.546       .  S
C3673      C3679   1.546       .  S
C3673      C3677   1.534       .  S
C3673      C3781   1.564       .  S
C3674      H3681   1.072       .  S
C3674      C3675   1.310       .  D
C3675      C3676   1.540       .  S
C3676      C3680   1.571       .  S
C3676      C3678   1.546       .  S
C3676      H3682   1.111       .  S
C3677      H3683   1.079       .  S
C3677      C3678   1.383       .  D
C3678      C3848   1.471       .  S
C3679      H3684   1.088       .  S
C3679      C3680   1.352       .  D
C3685      C3691   1.563       .  S
C3685      C3689   1.555       .  S
C3685      C3805   1.630       .  S
C3686      H3693   1.061       .  S
C3686      C3687   1.338       .  D
C3688      C3692   1.543       .  S
C3688      C3690   1.527       .  S
C3688      H3694   1.111       .  S
C3689      H3695   1.075       .  S
C3689      C3690   1.385       .  D
C3690      C3858   1.489       .  S
C3691      H3696   1.079       .  S
C3691      C3692   1.352       .  D
C3697      C3698   1.543       .  S
C3697      C3703   1.541       .  S
C3697      C3701   1.542       .  S
C3697      C3733   1.582       .  S
C3698      H3705   1.070       .  S
C3698      C3699   1.330       .  D
C3699      C3700   1.561       .  S
C3700      C3704   1.571       .  S
C3700      C3702   1.524       .  S
C3700      H3706   1.111       .  S
C3701      H3707   1.079       .  S
C3701      C3702   1.390       .  D
C3702      C3843   1.466       .  S
C3703      H3708   1.088       .  S
C3703      C3704   1.345       .  D
C3709      C3710   1.520       .  S
C3709      C3713   1.541       .  S
C3709      C3793   1.568       .  S
C3710      H3717   1.063       .  S
C3710      C3711   1.316       .  D
C3711      C3712   1.538       .  S
C3712      C3714   1.558       .  S
C3712      H3718   1.111       .  S
C3713      H3719   1.078       .  S
C3713      C3714   1.386       .  D
C3714      C3855   1.489       .  S
C3715      H3720   1.087       .  S
C3715      C3716   1.360       .  D
C3721      C3722   1.522       .  S
C3721      C3725   1.535       .  S
C3721      C3745   1.592       .  S
C3722      H3729   1.064       .  S
C3722      C3723   1.330       .  D
C3723      C3724   1.548       .  S
C3724      C3726   1.550       .  S
C3724      H3730   1.111       .  S
C3725      H3731   1.080       .  S
C3725      C3726   1.384       .  D
C3726      C3822   1.480       .  S
C3727      H3732   1.087       .  S
C3727      C3728   1.361       .  D
C3733      C3734   1.534       .  S
C3733      C3739   1.543       .  S
C3733      C3737   1.547       .  S
C3734      H3741   1.065       .  S
C3734      C3735   1.318       .  D
C3735      C3736   1.559       .  S
C3736      C3740   1.562       .  S
C3736      C3738   1.550       .  S
C3736      H3742   1.111       .  S
C3737      H3743   1.083       .  S
C3737      C3738   1.389       .  D
C3738      C3867   1.493       .  S
C3739      H3744   1.088       .  S
C3739      C3740   1.353       .  D
C3745      C3751   1.544       .  S
C3745      C3749   1.549       .  S
C3746      H3753   1.075       .  S
C3746      C3747   1.326       .  D
C3748      C3752   1.574       .  S
C3748      C3750   1.553       .  S
C3748      H3754   1.110       .  S
C3749      H3755   1.083   1_655  S
C3749      C3750   1.388       .  D
C3750      C3834   1.508       .  S
C3751      H3756   1.088       .  S
C3751      C3752   1.353       .  D
C3757      C3758   1.528       .  S
C3757      C3761   1.535       .  S
C3757      C3769   1.590       .  S
C3758      H3765   1.067       .  S
C3758      C3759   1.326       .  D
C3759      C3760   1.546       .  S
C3760      C3762   1.561       .  S
C3760      H3766   1.110       .  S
C3761      H3767   1.082       .  S
C3761      C3762   1.382       .  D
C3762      C3831   1.488       .  S
C3763      H3768   1.087       .  S
C3763      C3764   1.362       .  D
C3769      C3775   1.546       .  S
C3769      C3773   1.559       .  S
C3770      H3777   1.077       .  S
C3770      C3771   1.316       .  D
C3772      C3776   1.572       .  S
C3772      C3774   1.556       .  S
C3772      H3778   1.110       .  S
C3773      H3779   1.080   1_655  S
C3773      C3774   1.397       .  D
C3774      C3819   1.518       .  S
C3775      H3780   1.088       .  S
C3775      C3776   1.350       .  D
C3781      C3782   1.534       .  S
C3781      C3787   1.535       .  S
C3781      C3785   1.544       .  S
C3782      H3789   1.070       .  S
C3782      C3783   1.323       .  D
C3783      C3784   1.538       .  S
C3784      C3788   1.559       .  S
C3784      C3786   1.549       .  S
C3784      H3790   1.110       .  S
C3785      H3791   1.082       .  S
C3785      C3786   1.398       .  D
C3786      C3872   1.486       .  S
C3787      H3792   1.089       .  S
C3787      C3788   1.333       .  D
C3793      C3799   1.553       .  S
C3793      C3797   1.529   1_565  S
C3794      H3801   1.070       .  S
C3794      C3795   1.330       .  D
C3796      C3800   1.566       .  S
C3796      C3798   1.578       .  S
C3796      H3802   1.110       .  S
C3797      H3803   1.080       .  S
C3797      C3798   1.379   1_545  D
C3798      C3879   1.498       .  S
C3799      H3804   1.088       .  S
C3799      C3800   1.349       .  D
C3805      C3806   1.496       .  S
C3805      C3809   1.551       .  S
C3806      H3813   1.086       .  S
C3806      C3807   1.322       .  D
C3807      C3808   1.546       .  S
C3808      C3810   1.588       .  S
C3808      H3814   1.110       .  S
C3809      H3815   1.080       .  S
C3809      C3810   1.399       .  D
C3810      C3882   1.513       .  S
C3811      H3816   1.087       .  S
C3811      C3812   1.361       .  D
C3817      C3818   1.552       .  S
C3817      C3823   1.531       .  S
C3817      C3870   1.568       .  S
C3818      H3825   1.085       .  S
C3818      C3819   1.386       .  D
C3820      C3824   1.573       .  S
C3820      H3826   1.110       .  S
C3821      H3827   1.080       .  S
C3821      C3822   1.361       .  D
C3823      H3828   1.073       .  S
C3824      C3860   1.544       .  S
C3829      C3830   1.530       .  S
C3829      C3846   1.538       .  S
C3830      H3837   1.081       .  S
C3831      C3832   1.546       .  S
C3832      C3836   1.582       .  S
C3832      H3838   1.110       .  S
C3833      H3839   1.081       .  S
C3835      H3840   1.073       .  S
C3835      C3836   1.378       .  D
C3836      C3884   1.556       .  S
C3841      C3847   1.541       .  S
C3841      C3845   1.530       .  S
C3841      C3853   1.559       .  S
C3842      H3849   1.082       .  S
C3842      C3843   1.348       .  D
C3844      C3848   1.522       .  S
C3844      C3846   1.565       .  S
C3844      H3850   1.111       .  S
C3845      H3851   1.080       .  S
C3845      C3846   1.371       .  D
C3847      H3852   1.079       .  S
C3847      C3848   1.360       .  D
C3853      C3857   1.526       .  S
C3854      H3861   1.082       .  S
C3856      C3860   1.580       .  S
C3856      C3858   1.560       .  S
C3856      H3862   1.110       .  S
C3857      H3863   1.084       .  S
C3859      H3864   1.079       .  S
C3859      C3860   1.381       .  D
C3865      C3871   1.555       .  S
C3865      C3869   1.552       .  S
C3865      C3877   1.626       .  S
C3866      H3873   1.069       .  S
C3866      C3867   1.350       .  D
C3868      C3872   1.527       .  S
C3868      C3870   1.556       .  S
C3868      H3874   1.111       .  S
C3869      H3875   1.077       .  S
C3869      C3870   1.383       .  D
C3871      H3876   1.080       .  S
C3871      C3872   1.383       .  D
C3877      C3883   1.528       .  S
C3877      C3881   1.535       .  S
C3878      H3885   1.081       .  S
C3878      C3879   1.363       .  D
C3880      C3884   1.579       .  S
C3880      H3886   1.110       .  S
C3881      H3887   1.065       .  S
C3881      C3882   1.364       .  D
C3883      H3888   1.077       .  S
