geometry optimzed in LAMMPS
_audit_creation_date              2020-12-01 
_audit_creation_method            'lammps2cif' 
_symmetry_space_group_name_H-M    'P1' 
_symmetry_Int_Tables_number       1 
_symmetry_cell_setting            triclinic 
loop_ 
_symmetry_equiv_pos_as_xyz 
  x,y,z 
_cell_length_a                    42.25948785 
_cell_length_b                    45.42670477406476 
_cell_length_c                    45.66726578387503 
_cell_angle_alpha                 90.65700277225694 
_cell_angle_beta                  90.39186271625304 
_cell_angle_gamma                 89.37066599846536 
loop_ 
_atom_site_label 
_atom_site_type_symbol 
_atom_site_fract_x 
_atom_site_fract_y 
_atom_site_fract_z 
_atom_site_charge 
C1          C  0.53243104  0.23056877  0.12428255     0.29600
C2          C  0.48834868  0.27570557  0.12702887     0.29600
C3          C  0.54562981  0.26226452  0.12826309    -0.06600
C4          C  0.51117853  0.23430238  0.09657603    -0.07400
C5          C  0.50789825  0.22894873  0.14873017    -0.07300
C6          C  0.52332515  0.28461054  0.12700347    -0.06600
C7          C  0.48800554  0.25762756  0.09785940    -0.07400
C8          C  0.48572490  0.25135845  0.14961592    -0.07300
C9          C  0.53862694  0.31098005  0.12960580    -0.32700
N10         N  0.56931487  0.30614665  0.13706896     0.13800
C11         C  0.57330687  0.27618167  0.13683753    -0.32700
H12         H  0.59307930  0.26511109  0.14673843     0.15800
C13         C  0.48357128  0.26638278  0.06906631    -0.31700
N14         N  0.50153428  0.24917397  0.05114934     0.12600
C15         C  0.51889271  0.23025866  0.06744080    -0.31600
C16         C  0.46241877  0.24340886  0.16890143    -0.31900
N17         N  0.47041352  0.21701383  0.18021534     0.13100
H18         H  0.44094046  0.25558029  0.17395996     0.15700
C19         C  0.49823952  0.20803660  0.16851295    -0.31900
H20         H  0.50975416  0.18742522  0.17372928     0.15700
H21         H  0.53715790  0.21576923  0.05887278     0.15700
H22         H  0.52632044  0.33183701  0.13021072     0.15800
H23         H  0.46982352  0.28521656  0.06181616     0.15700
C24         C  0.98915937  0.03285582  0.12892826     0.29600
C25         C  0.03519501  0.48099388  0.12508398     0.29600
C26         C  0.99062687  0.50046715  0.15443437    -0.06600
C27         C  0.98991821  0.01660866  0.09947706    -0.07400
C28         C  0.02469832  0.04109631  0.13180871    -0.07300
C29         C  0.01223739  0.47774575  0.15069452    -0.06600
C30         C  0.01250064  0.48839417  0.09956745    -0.07400
C31         C  0.04632987  0.01733121  0.13123111    -0.07300
C32         C  0.00396726  0.45596976  0.17012090    -0.32700
N33         N  0.97690727  0.46439789  0.18370322     0.13800
C34         C  0.96836476  0.49129229  0.17388522    -0.32700
H35         H  0.94726324  0.50328794  0.18048528     0.15800
C36         C  0.01634815  0.48484171  0.07002208    -0.31700
N37         N  0.99883553  0.50556375  0.05633236     0.12600
C38         C  0.98219736  0.02444836  0.07131209    -0.31600
C39         C  0.07148392  0.02608941  0.14871092    -0.31900
N40         N  0.06722739  0.05453002  0.15698800     0.13100
H41         H  0.08876163  0.01156636  0.15875718     0.15700
C42         C  0.04012702  0.06440158  0.14463253    -0.31900
H43         H  0.03043058  0.08607605  0.14892902     0.15700
H44         H  0.96798068  0.04312852  0.06447441     0.15700
H45         H  0.01612998  0.43537350  0.17403809     0.15800
H46         H  0.03222024  0.46943676  0.05916754     0.15700
C47         C  0.46663906  0.22323429  0.44776735     0.29600
C48         C  0.52224356  0.25466802  0.43959073     0.29600
C49         C  0.46397389  0.25127779  0.42954634    -0.06600
C50         C  0.48457766  0.23540718  0.97607112    -0.07400
C51         C  0.49560920  0.20626159  0.43574442    -0.07300
C52         C  0.49180782  0.26606882  0.42489139    -0.06600
C53         C  0.51284931  0.25246618  0.97280018    -0.07400
C54         C  0.52352614  0.22149696  0.43339934    -0.07300
C55         C  0.48384856  0.29357074  0.41429632    -0.32700
N56         N  0.45214006  0.29592131  0.41189808     0.13800
C57         C  0.43986578  0.27165405  0.42409103    -0.32700
H58         H  0.41476042  0.26836903  0.42691086     0.15800
C59         C  0.52222648  0.25860242  0.00162148    -0.31700
N60         N  0.49979531  0.24872060  0.02034726     0.12600
C61         C  0.47705970  0.23442547  0.00512536    -0.31600
C62         C  0.54691688  0.20120548  0.42634811    -0.31900
N63         N  0.53331380  0.17474574  0.42087184     0.13100
H64         H  0.57107513  0.20653591  0.42088503     0.15700
C65         C  0.50246184  0.17732857  0.42826041    -0.31900
H66         H  0.48565258  0.15980687  0.42527480     0.15700
H67         H  0.45757927  0.22280290  0.01474696     0.15700
H68         H  0.50011259  0.31011790  0.40691085     0.15800
H69         H  0.54440235  0.26773138  0.00895290     0.15700
C70         C  0.96310719  0.48125653  0.45511807     0.29600
C71         C  0.00047744  0.03424216  0.45066214     0.29600
C72         C  0.94514475  0.01474141  0.44726184    -0.06600
C73         C  0.98398828  0.48819287  0.98198323    -0.07400
C74         C  0.98668614  0.47991548  0.42982430    -0.07300
C75         C  0.96424549  0.04001894  0.44766417    -0.06600
C76         C  0.00341140  0.01323748  0.97587986    -0.07400
C77         C  0.00671884  0.00927533  0.42862267    -0.07300
C78         C  0.94707591  0.06179906  0.43415193    -0.32700
N79         N  0.92198038  0.04968870  0.42041863     0.13800
C80         C  0.92028213  0.02124732  0.42847218    -0.32700
H81         H  0.90530169  0.00529692  0.41757352     0.15800
C82         C  0.00511247  0.02448495  0.00419123    -0.31700
N83         N  0.99399446  0.00424256  0.02278345     0.12600
C84         C  0.98009412  0.48353250  0.01119679    -0.31600
C85         C  0.03010816  0.49685159  0.40896015    -0.31900
N86         N  0.02591368  0.46904279  0.39941821     0.13100
H87         H  0.04980252  0.51057966  0.40304307     0.15700
C88         C  0.99933435  0.45841740  0.41144746    -0.31900
H89         H  0.99068055  0.43652644  0.40721891     0.15700
H90         H  0.96667647  0.46614287  0.02109800     0.15700
H91         H  0.95470103  0.08400786  0.43032812     0.15800
H92         H  0.01184718  0.04641504  0.01093895     0.15700
O93         O  0.56367417  0.37637042  0.28794720    -0.85800
O94         O  0.60240981  0.33570902  0.25775721    -0.82800
C95         C  0.61373493  0.35354745  0.23993618     0.97700
O96         O  0.62976654  0.37469679  0.24957876    -0.82900
O97         O  0.65850594  0.41376319  0.28763260    -0.85500
C98         C  0.64282780  0.43352970  0.30122297     1.02200
O99         O  0.62396384  0.42708316  0.32130062    -0.78300
O100        O  0.56935028  0.39856589  0.33120074    -0.78500
C101        C  0.55457776  0.39542735  0.30661722     1.02200
O102        O  0.56985113  0.34312262  0.33890260    -0.85800
O103        O  0.61923403  0.31071805  0.31160761    -0.82800
C104        C  0.64532462  0.30558645  0.29891819     0.97700
O105        O  0.65772625  0.32508921  0.28281235    -0.82900
O106        O  0.68544072  0.36433904  0.31834824    -0.85500
C107        C  0.68601656  0.37324268  0.34443557     1.02200
O108        O  0.66212154  0.38618428  0.35575365    -0.78300
O109        O  0.60884653  0.35442018  0.36653151    -0.78400
C110        C  0.58454185  0.33925981  0.36248077     1.02100
Cr111      Cr  0.59109788  0.34333795  0.29977417     1.93700
Cr112      Cr  0.65508152  0.36961159  0.28632915     1.93200
Cr113      Cr  0.61639641  0.38986404  0.34141815     1.39100
O114        O  0.62135599  0.36824338  0.30910693    -1.23500
O115        O  0.55630868  0.13460457  0.26868845    -0.85800
O116        O  0.59963287  0.15994214  0.30403278    -0.82800
C117        C  0.60078593  0.13861798  0.32119067     0.97700
O118        O  0.61904757  0.11694953  0.31523936    -0.82900
O119        O  0.65510227  0.07691967  0.27971517    -0.85500
C120        C  0.63682766  0.05742104  0.27016932     1.02200
O121        O  0.61377859  0.06441752  0.25445280    -0.78300
O122        O  0.56252536  0.09549056  0.24046206    -0.78500
C123        C  0.54689802  0.10985068  0.25995557     1.02200
O124        O  0.58280606  0.16509147  0.21969671    -0.85800
O125        O  0.63146111  0.18424932  0.25571320    -0.82800
C126        C  0.65080574  0.18596788  0.27686210     0.97700
O127        O  0.65702736  0.16336001  0.29169706    -0.82900
O128        O  0.68116526  0.12453900  0.25030108    -0.85500
C129        C  0.68084133  0.11170319  0.22548061     1.02200
O130        O  0.65622711  0.09810571  0.21585844    -0.78300
O131        O  0.60239655  0.12704776  0.19629284    -0.78400
C132        C  0.58954804  0.15211748  0.19615436     1.02100
Cr133      Cr  0.59447955  0.15810457  0.26113197     1.93700
Cr134      Cr  0.65011857  0.12070655  0.28208685     1.93200
Cr135      Cr  0.60955031  0.09888654  0.22900901     1.39100
O136        O  0.61814199  0.12579340  0.25670829    -1.23500
O137        O  0.43991221  0.38205898  0.24539105    -0.85800
O138        O  0.41638105  0.36225476  0.29463845    -0.82800
C139        C  0.39779074  0.35839501  0.31536977     0.97700
O140        O  0.36892230  0.36535823  0.31279414    -0.82900
O141        O  0.35568347  0.42243936  0.28927938    -0.85500
C142        C  0.35257798  0.44332168  0.27124807     1.02200
O143        O  0.35019435  0.43625576  0.24472649    -0.78300
O144        O  0.41505475  0.42454164  0.24616153    -0.78500
C145        C  0.43915225  0.40907472  0.25282709     1.02200
O146        O  0.39921025  0.33991847  0.21285763    -0.85800
O147        O  0.37858504  0.31963493  0.26512873    -0.82800
C148        C  0.34941205  0.31680229  0.26980970     0.97700
O149        O  0.33082458  0.33890950  0.27019236    -0.82900
O150        O  0.31324892  0.39262820  0.24705384    -0.85500
C151        C  0.31387283  0.38819810  0.21946929     1.02200
O152        O  0.33969610  0.38909275  0.20528418    -0.78300
O153        O  0.40634846  0.38389734  0.19654454    -0.78400
C154        C  0.40816370  0.35631098  0.19270733     1.02100
Cr155      Cr  0.40625398  0.35273567  0.25404669     1.93700
Cr156      Cr  0.34450279  0.38043591  0.27793301     1.93200
Cr157      Cr  0.37783483  0.40643587  0.22484190     1.39100
O158        O  0.37574842  0.37908444  0.25225878    -1.23500
O159        O  0.43290262  0.12681446  0.34374788    -0.85800
O160        O  0.41831994  0.15383202  0.29398764    -0.82800
C161        C  0.40343691  0.15683010  0.27038876     0.97700
O162        O  0.37484735  0.14862120  0.26811090    -0.82900
O163        O  0.35333725  0.09188256  0.28592414    -0.85500
C164        C  0.34769580  0.07054611  0.30261910     1.02200
O165        O  0.34198801  0.07710792  0.32850118    -0.78300
O166        O  0.40876757  0.08624145  0.33238029    -0.78500
C167        C  0.43347007  0.10203360  0.33055111     1.02200
O168        O  0.38551675  0.16554572  0.37338588    -0.85800
O169        O  0.37628182  0.19415775  0.32101037    -0.82800
C170        C  0.34916956  0.19816137  0.30975172     0.97700
O171        O  0.33107188  0.17666896  0.30442935    -0.82900
O172        O  0.30683600  0.12428413  0.32502387    -0.85500
C173        C  0.30452239  0.12502693  0.35306063     1.02200
O174        O  0.32869564  0.11995147  0.36944312    -0.78300
O175        O  0.39408804  0.12087995  0.38665000    -0.78400
C176        C  0.39112694  0.14769028  0.39365887     1.02100
Cr177      Cr  0.40100644  0.15836593  0.33318598     1.93700
Cr178      Cr  0.34349466  0.13446654  0.29809599     1.93200
Cr179      Cr  0.36907431  0.10302430  0.35255976     1.39100
O180        O  0.37063450  0.13285255  0.32770751    -1.23500
O181        O  0.06096674  0.39088298  0.23533900    -0.85800
O182        O  0.08190170  0.41481659  0.28595349    -0.82800
C183        C  0.09755191  0.41450467  0.30935615     0.97700
O184        O  0.12560182  0.40476881  0.31060837    -0.82900
O185        O  0.14132924  0.34749870  0.29367991    -0.85500
C186        C  0.14167124  0.32422928  0.27822061     1.02200
O187        O  0.14138304  0.32653565  0.25092942    -0.78300
O188        O  0.07790594  0.34806891  0.24819189    -0.78500
C189        C  0.05585683  0.36744389  0.24911254     1.02200
O190        O  0.11019105  0.42336232  0.20487907    -0.85800
O191        O  0.12548732  0.45061992  0.25713240    -0.82800
C192        C  0.15301519  0.45271621  0.26756888     0.97700
O193        O  0.16939164  0.42961528  0.27264314    -0.82900
O194        O  0.18627115  0.37290929  0.25102278    -0.85500
C195        C  0.18627272  0.37068538  0.22309164     1.02200
O196        O  0.16088753  0.36641179  0.20841702    -0.78300
O197        O  0.09741843  0.37852429  0.19380555    -0.78400
C198        C  0.10118115  0.40488058  0.18599090     1.02100
Cr199      Cr  0.09695361  0.41767937  0.24601081     1.93700
Cr200      Cr  0.15338847  0.38816251  0.27935434     1.93200
Cr201      Cr  0.11944889  0.35727976  0.22719295     1.39100
O202        O  0.12415821  0.38836496  0.25097605    -1.23500
O203        O  0.04719572  0.12950212  0.33707329    -0.85800
O204        O  0.07486822  0.11180502  0.28624270    -0.82800
C205        C  0.09448657  0.11225564  0.26564406     0.97700
O206        O  0.12208536  0.12161737  0.26966154    -0.82900
O207        O  0.13177664  0.17888064  0.29306500    -0.85500
C208        C  0.13097168  0.20018083  0.31133542     1.02200
O209        O  0.12895146  0.19454009  0.33810416    -0.78300
O210        O  0.06652321  0.17377257  0.33563549    -0.78500
C211        C  0.04414811  0.15610120  0.32932233     1.02200
O212        O  0.09305064  0.09241344  0.36937171    -0.85800
O213        O  0.11679177  0.07318780  0.31598864    -0.82800
C214        C  0.14606879  0.07247648  0.31071560     0.97700
O215        O  0.16215990  0.09600509  0.31102064    -0.82900
O216        O  0.17448703  0.15208771  0.33478349    -0.85500
C217        C  0.17466994  0.14881008  0.36225249     1.02200
O218        O  0.14869994  0.14873875  0.37660425    -0.78300
O219        O  0.08308012  0.13651022  0.38563516    -0.78400
C220        C  0.08388268  0.10912142  0.38991177     1.02100
Cr221      Cr  0.08544781  0.10417756  0.32762195     1.93700
Cr222      Cr  0.14474661  0.13718680  0.30441062     1.93200
Cr223      Cr  0.10710748  0.16109834  0.35706626     1.39100
O224        O  0.11292786  0.13360190  0.32962309    -1.23500
O225        O  0.86832234  0.44234229  0.32762022    -0.85800
O226        O  0.88659672  0.41573221  0.37829519    -0.82800
C227        C  0.89961143  0.39884176  0.39629745     0.97700
O228        O  0.90531280  0.37279779  0.38794633    -0.82900
O229        O  0.84066020  0.35955859  0.37050730    -0.85500
C230        C  0.81625338  0.36099651  0.35354079     1.02200
O231        O  0.81860696  0.36264886  0.32567268    -0.78300
O232        O  0.83347399  0.41760227  0.30142228    -0.78500
C233        C  0.84405904  0.44180386  0.31143969     1.02200
O234        O  0.91788688  0.41374427  0.29791595    -0.85800
O235        O  0.93971361  0.38739528  0.34617725    -0.82800
C236        C  0.94651050  0.36397050  0.33206742     0.97700
O237        O  0.92653175  0.34311326  0.33377572    -0.82900
O238        O  0.86384420  0.31902309  0.33169742    -0.85500
C239        C  0.86494583  0.31331816  0.30507947     1.02200
O240        O  0.86776328  0.33499467  0.28825401    -0.78300
O241        O  0.88331861  0.39132213  0.26931059    -0.78400
C242        C  0.90756599  0.40707400  0.27299957     1.02100
Cr243      Cr  0.90120490  0.41230914  0.33716548     1.93700
Cr244      Cr  0.88408976  0.35103948  0.35418128     1.93200
Cr245      Cr  0.85284156  0.37664529  0.29896815     1.39100
O246        O  0.87843095  0.38074327  0.32978833    -1.23500
O247        O  0.93627197  0.12729910  0.24024276    -0.85800
O248        O  0.91307439  0.10543932  0.29097461    -0.82800
C249        C  0.89375336  0.10457469  0.31181198     0.97700
O250        O  0.86511531  0.11138206  0.30812379    -0.82900
O251        O  0.85008062  0.16705150  0.28628957    -0.85500
C252        C  0.84814942  0.18827844  0.26861608     1.02200
O253        O  0.84447600  0.18155299  0.24229243    -0.78300
O254        O  0.91090290  0.16928259  0.24446480    -0.78500
C255        C  0.93567280  0.15366018  0.24971771     1.02200
O256        O  0.89485244  0.08656954  0.20743929    -0.85800
O257        O  0.87583175  0.06389026  0.26029591    -0.82800
C258        C  0.84687846  0.06064776  0.26593655     0.97700
O259        O  0.82795381  0.08261174  0.26703305    -0.82900
O260        O  0.80756849  0.13625991  0.24403591    -0.85500
C261        C  0.80794991  0.13209380  0.21646504     1.02200
O262        O  0.83361212  0.13528197  0.20212784    -0.78300
O263        O  0.90010058  0.13157689  0.19313140    -0.78400
C264        C  0.90142581  0.10440731  0.18752402     1.02100
Cr265      Cr  0.90247545  0.09783050  0.24935758     1.93700
Cr266      Cr  0.83996530  0.12483492  0.27427459     1.93200
Cr267      Cr  0.87248795  0.15245262  0.22220576     1.39100
O268        O  0.87120516  0.12414130  0.24859096    -1.23500
C269        C  0.86305820  0.27247723  0.26519695    -0.02300
C270        C  0.86154548  0.28124862  0.29508923     0.07400
C271        C  0.85599896  0.25855594  0.31597813    -0.02400
C272        C  0.84801022  0.22965984  0.30691400    -0.02400
C273        C  0.85153766  0.22047905  0.27750507     0.07500
C274        C  0.85993530  0.24237507  0.25674082    -0.02600
Br275      Br  0.86890184  0.23214041  0.21625519    -0.01100
Br276      Br  0.87052555  0.30101927  0.23500937    -0.01200
Br277      Br  0.82947853  0.20371795  0.33517385    -0.01200
Br278      Br  0.86195233  0.26435013  0.35782779    -0.01200
C279        C  0.83608961  0.47808699  0.27109957    -0.02300
C280        C  0.83136472  0.47091683  0.30080736     0.07400
C281        C  0.82331537  0.49413834  0.32047060    -0.02400
C282        C  0.82868098  0.02485728  0.30345248    -0.02400
C283        C  0.83653451  0.03046547  0.27402973     0.07500
C284        C  0.84125448  0.00621417  0.25478726    -0.02600
Br285      Br  0.85750994  0.01210993  0.21595281    -0.01100
Br286      Br  0.84248825  0.44739374  0.24212464    -0.01200
Br287      Br  0.82156008  0.05724776  0.33041617    -0.01200
Br288      Br  0.81841500  0.48662934  0.36141486    -0.01200
C289        C  0.02028923  0.16806920  0.27948161    -0.02300
C290        C  0.01601676  0.16463091  0.30994029     0.07400
C291        C  0.98439247  0.16470079  0.31996928    -0.02400
C292        C  0.95841547  0.16687996  0.30001403    -0.02400
C293        C  0.96288054  0.16385047  0.26942058     0.07500
C294        C  0.99451894  0.16497291  0.25946597    -0.02600
Br295      Br  0.00329302  0.16215807  0.21847997    -0.01100
Br296      Br  0.06121067  0.17847725  0.26508681    -0.01200
Br297      Br  0.91687847  0.17504878  0.31483990    -0.01200
Br298      Br  0.97602568  0.16208980  0.36097661    -0.01200
C299        C  0.98800335  0.33705982  0.29838496    -0.02300
C300        C  0.97576499  0.36324518  0.31193337     0.07400
C301        C  0.98995297  0.39016938  0.30334952    -0.02400
C302        C  0.01146487  0.39117431  0.27972923    -0.02400
C303        C  0.02619647  0.36516228  0.26836802     0.07500
C304        C  0.01356159  0.33798155  0.27779162    -0.02600
Br305      Br  0.02877593  0.30180595  0.26008080    -0.01100
Br306      Br  0.97137028  0.29929161  0.30889748    -0.01200
Br307      Br  0.01723678  0.42921480  0.26182539    -0.01200
Br308      Br  0.98295454  0.42690158  0.32452668    -0.01200
C309        C  0.11520481  0.28393471  0.30702594    -0.02300
C310        C  0.14131989  0.29367299  0.29084391     0.07400
C311        C  0.16462087  0.27261997  0.28258772    -0.02400
C312        C  0.16049612  0.24213095  0.28772587    -0.02400
C313        C  0.13358573  0.23208345  0.30264584     0.07500
C314        C  0.11143337  0.25354421  0.31302651    -0.02600
Br315      Br  0.07487399  0.24164671  0.33473119    -0.01100
Br316      Br  0.08443883  0.31238519  0.32099588    -0.01200
Br317      Br  0.19272524  0.21427104  0.27557780    -0.01200
Br318      Br  0.20407414  0.28613189  0.26734173    -0.01200
C319        C  0.16359035  0.49095454  0.30682793    -0.02300
C320        C  0.16374987  0.48317555  0.27668866     0.07400
C321        C  0.16588058  0.50642816  0.25628643    -0.02400
C322        C  0.16137011  0.03763116  0.27028581    -0.02400
C323        C  0.15955502  0.04336383  0.30068532     0.07500
C324        C  0.16109607  0.01908982  0.31973764    -0.02600
Br325      Br  0.15700758  0.02529998  0.36113379    -0.01100
Br326      Br  0.16252860  0.46065435  0.33599414    -0.01200
Br327      Br  0.16502325  0.06990052  0.24358633    -0.01200
Br328      Br  0.16050259  0.49906445  0.21505464    -0.01200
C329        C  0.25151055  0.10970034  0.37397979    -0.02300
C330        C  0.27253553  0.13209974  0.36592150     0.07400
C331        C  0.26104265  0.16144484  0.36629884    -0.02400
C332        C  0.22865909  0.16792575  0.37095711    -0.02400
C333        C  0.20695877  0.14518613  0.37541660     0.07500
C334        C  0.21919044  0.11651347  0.37957067    -0.02600
Br335      Br  0.19091257  0.08658723  0.39158814    -0.01100
Br336      Br  0.26614394  0.06942339  0.37449407    -0.01200
Br337      Br  0.21290662  0.20787005  0.36833075    -0.01200
Br338      Br  0.28893350  0.19294080  0.35823316    -0.01200
C339        C  0.26207806  0.40803126  0.20435044    -0.02300
C340        C  0.28294038  0.38387029  0.20497374     0.07400
C341        C  0.27059674  0.35525501  0.20208869    -0.02400
C342        C  0.23757910  0.35080479  0.20300372    -0.02400
C343        C  0.21714094  0.37483415  0.20835897     0.07500
C344        C  0.22938819  0.40347180  0.20672353    -0.02600
Br345      Br  0.20183108  0.43655188  0.21063509    -0.01100
Br346      Br  0.27891675  0.44737709  0.20404815    -0.01200
Br347      Br  0.22032253  0.31212080  0.19803701    -0.01200
Br348      Br  0.29896380  0.32219520  0.20004987    -0.01200
C349        C  0.33794453  0.25267724  0.31899668    -0.02300
C350        C  0.34038978  0.22836271  0.29950914     0.07400
C351        C  0.34001502  0.23389158  0.26908061    -0.02400
C352        C  0.34234990  0.26294253  0.25878918    -0.02400
C353        C  0.33880377  0.28706213  0.27825117     0.07500
C354        C  0.33411082  0.28148712  0.30820138    -0.02600
Br355      Br  0.32577536  0.31369102  0.33509216    -0.01100
Br356      Br  0.34332207  0.24788778  0.36032541    -0.01200
Br357      Br  0.35456031  0.26919159  0.21875644    -0.01200
Br358      Br  0.33900572  0.20191490  0.24107253    -0.01200
C359        C  0.34642823  0.48495093  0.30938248    -0.02300
C360        C  0.35106331  0.47576354  0.27997079     0.07400
C361        C  0.35369738  0.49821493  0.25841172    -0.02400
C362        C  0.35066882  0.02906983  0.26402724    -0.02400
C363        C  0.34802465  0.03818743  0.29365399     0.07500
C364        C  0.34625481  0.01560415  0.31529985    -0.02600
Br365      Br  0.34684908  0.02409457  0.35711658    -0.01100
Br366      Br  0.34232771  0.45625390  0.34024142    -0.01200
Br367      Br  0.34779853  0.05736856  0.23272463    -0.01200
Br368      Br  0.36659414  0.48922581  0.21857610    -0.01200
C369        C  0.51969067  0.08968484  0.30493973    -0.02300
C370        C  0.51771278  0.09816583  0.27513257     0.07400
C371        C  0.48716783  0.10057886  0.26279924    -0.02400
C372        C  0.45983307  0.09585336  0.28020668    -0.02400
C373        C  0.46186614  0.09412959  0.31122692     0.07500
C374        C  0.49243678  0.08983280  0.32321593    -0.02600
Br375      Br  0.49671803  0.08261342  0.36451274    -0.01100
Br376      Br  0.55933447  0.07507579  0.31993187    -0.01200
Br377      Br  0.42057631  0.08803593  0.26092707    -0.01200
Br378      Br  0.48272027  0.11144044  0.22236145    -0.01200
C379        C  0.72180566  0.13906807  0.19708508    -0.02300
C380        C  0.71125323  0.11232273  0.20881866     0.07400
C381        C  0.73349292  0.08929698  0.21193204    -0.02400
C382        C  0.76603112  0.09458952  0.20746815    -0.02400
C383        C  0.77706319  0.12338412  0.20277182     0.07500
C384        C  0.75456691  0.14511661  0.19523255    -0.02600
Br385      Br  0.76885305  0.18339574  0.18396875    -0.01100
Br386      Br  0.69112003  0.16667214  0.18294821    -0.01200
Br387      Br  0.79565387  0.06255543  0.20782998    -0.01200
Br388      Br  0.71969091  0.05130519  0.22468861    -0.01200
C389        C  0.49647263  0.40633862  0.31430025    -0.02300
C390        C  0.52485096  0.41193711  0.29949658     0.07400
C391        C  0.52305662  0.42837311  0.27347539    -0.02400
C392        C  0.49397098  0.43082190  0.25801744    -0.03200
C393        C  0.46604643  0.42072064  0.27091449     0.07500
C394        C  0.46731032  0.41375229  0.30091313    -0.02600
Br395      Br  0.43066262  0.42096971  0.32455137    -0.01100
Br396      Br  0.49697574  0.38664715  0.35140461    -0.01200
Br397      Br  0.49178642  0.44906272  0.22032620    -0.01200
Br398      Br  0.55970541  0.44968153  0.26148732    -0.01200
C399        C  0.73549687  0.39198275  0.36938047    -0.02300
C400        C  0.71655995  0.36817667  0.36041432     0.07400
C401        C  0.73090981  0.33996501  0.35837016    -0.02400
C402        C  0.76407933  0.33660424  0.35909516    -0.02400
C403        C  0.78332686  0.36104819  0.36486747     0.07500
C404        C  0.76862605  0.38805005  0.37236867    -0.02600
Br405      Br  0.79451002  0.42038446  0.38346753    -0.01100
Br406      Br  0.71696803  0.43060412  0.37393220    -0.01200
Br407      Br  0.78318546  0.29927749  0.34853893    -0.01200
Br408      Br  0.70517418  0.30594349  0.35292156    -0.01200
C409        C  0.64825116  0.25539872  0.32153994    -0.02300
C410        C  0.65906607  0.27533323  0.30047894     0.07400
C411        C  0.67969241  0.26437847  0.27872696    -0.02400
C412        C  0.67853389  0.23433801  0.27095330    -0.02400
C413        C  0.66071270  0.21509542  0.28802854     0.07500
C414        C  0.65001948  0.22508978  0.31568993    -0.02600
Br415      Br  0.63847436  0.19820234  0.34603802    -0.01100
Br416      Br  0.63394363  0.26903668  0.35939180    -0.01200
Br417      Br  0.70316520  0.21930039  0.23891811    -0.01200
Br418      Br  0.71375882  0.28832331  0.26497695    -0.01200
C419        C  0.64520893  0.48709883  0.31586084    -0.02300
C420        C  0.64553001  0.46517909  0.29346533     0.07400
C421        C  0.64488130  0.47398427  0.26384934    -0.02400
C422        C  0.64186661  0.00429375  0.25465843    -0.02400
C423        C  0.64219075  0.02591189  0.27720978     0.07500
C424        C  0.64598070  0.01709725  0.30648381    -0.02600
Br425      Br  0.64762257  0.04621075  0.33760153    -0.01100
Br426      Br  0.64780682  0.47649606  0.35669354    -0.01200
Br427      Br  0.63805146  0.01590792  0.21417416    -0.01200
Br428      Br  0.64468487  0.44514263  0.23239588    -0.01200
C429        C  0.05800792  0.05426207  0.44801625    -0.02300
C430        C  0.02451672  0.05927681  0.44490405     0.07400
C431        C  0.01588495  0.08334451  0.42685004    -0.02400
C432        C  0.03769409  0.10561961  0.42312872    -0.02400
C433        C  0.06855868  0.09659411  0.41652222     0.07500
C434        C  0.07937821  0.07085245  0.43074004    -0.02600
Br435      Br  0.12269555  0.05868138  0.42689876    -0.01100
Br436      Br  0.07487226  0.02164602  0.47017348    -0.01200
Br437      Br  0.02294822  0.14526313  0.41880851    -0.01200
Br438      Br  0.99810280  0.07449531  0.38871080    -0.01200
C439        C  0.08162331  0.41611594  0.36230181    -0.02300
C440        C  0.08274331  0.42901429  0.33447364     0.07400
C441        C  0.06726801  0.45614756  0.32937977    -0.02400
C442        C  0.04668171  0.46767347  0.35007304    -0.02400
C443        C  0.04497761  0.45492583  0.37774163     0.07500
C444        C  0.06352528  0.42987514  0.38439210    -0.02600
Br445      Br  0.06521163  0.41541533  0.42370934    -0.01100
Br446      Br  0.10409046  0.37987074  0.37005598    -0.01200
Br447      Br  0.01865548  0.49925977  0.33902627    -0.01200
Br448      Br  0.07511871  0.47914179  0.29487196    -0.01200
C449        C  0.89494806  0.43282487  0.44030087    -0.02300
C450        C  0.91224886  0.41115041  0.42449703     0.07400
C451        C  0.94361597  0.40497306  0.43407246    -0.02400
C452        C  0.95867671  0.42498279  0.45346037    -0.02400
C453        C  0.94421386  0.45249509  0.45918343     0.07500
C454        C  0.91102825  0.45260334  0.45900659    -0.02600
Br455      Br  0.88560228  0.98464472  0.47865607    -0.01100
Br456      Br  0.84978227  0.43489106  0.43738625    -0.01200
Br457      Br  0.99919186  0.41616788  0.47082396    -0.01200
Br458      Br  0.96769455  0.37217083  0.41848383    -0.01200
C459        C  0.89397785  0.08755950  0.39276200    -0.02300
C460        C  0.91119140  0.06105781  0.39295461     0.07400
C461        C  0.92390652  0.04958063  0.36661408    -0.02400
C462        C  0.92133928  0.06575920  0.34072996    -0.02400
C463        C  0.90333950  0.09219206  0.34030195     0.07500
C464        C  0.88947606  0.10288574  0.36653748    -0.02600
Br465      Br  0.86525327  0.13904188  0.36743881    -0.01100
Br466      Br  0.87665863  0.10239261  0.42902398    -0.01200
Br467      Br  0.94275781  0.05089005  0.30618551    -0.01200
Br468      Br  0.94560727  0.01190405  0.36561099    -0.01200
C469        C  0.57543127  0.32000425  0.41438604    -0.02300
C470        C  0.57349184  0.31634142  0.38360552     0.07400
C471        C  0.56040349  0.29013291  0.37235014    -0.02400
C472        C  0.55047554  0.26776686  0.39125230    -0.02400
C473        C  0.54848144  0.27230524  0.42270668     0.07500
C474        C  0.56200378  0.29897934  0.43361808    -0.02600
Br475      Br  0.56008827  0.30955104  0.47427022    -0.01100
Br476      Br  0.59332036  0.35576707  0.43037410    -0.01200
Br477      Br  0.53580603  0.23300654  0.37048162    -0.01200
Br478      Br  0.55526841  0.28407203  0.33001407    -0.01200
C479        C  0.43842877  0.17352282  0.45834693    -0.02300
C480        C  0.43695425  0.20307410  0.44734980     0.07400
C481        C  0.41071524  0.20899567  0.42830019    -0.02400
C482        C  0.38612537  0.18898239  0.42828591    -0.02400
C483        C  0.39600265  0.15992346  0.42410423     0.07500
C484        C  0.42118470  0.15117536  0.44277536    -0.02600
Br485      Br  0.43338322  0.11044184  0.44509579    -0.01100
Br486      Br  0.46735826  0.16239039  0.48921877    -0.01200
Br487      Br  0.34378204  0.20085328  0.41891968    -0.01200
Br488      Br  0.41789046  0.22049255  0.38819205    -0.01200
C489        C  0.44251396  0.30202884  0.35945364    -0.02300
C490        C  0.43704547  0.31151764  0.38842009     0.07400
C491        C  0.41730560  0.33601288  0.39387222    -0.02400
C492        C  0.40329184  0.35132582  0.37025190    -0.02400
C493        C  0.41024278  0.34260756  0.34114487     0.07500
C494        C  0.42974831  0.31755334  0.33597716    -0.02600
Br495      Br  0.43906123  0.30284225  0.29679529    -0.01100
Br496      Br  0.46736204  0.26719500  0.35134251    -0.01200
Br497      Br  0.37570639  0.38447539  0.37798869    -0.01200
Br498      Br  0.41068190  0.34866809  0.43369642    -0.01200
C499        C  0.59197737  0.13314225  0.37581412    -0.02300
C500        C  0.58058260  0.14098656  0.34772436     0.07400
C501        C  0.55005109  0.15450410  0.34539091    -0.02400
C502        C  0.53097654  0.15775787  0.37000300    -0.02400
C503        C  0.54476956  0.15543421  0.39801386     0.07500
C504        C  0.57456163  0.14160677  0.40092264    -0.02600
Br505      Br  0.59149015  0.13579515  0.43964615    -0.01100
Br506      Br  0.63347973  0.11586959  0.38064778    -0.01200
Br507      Br  0.48701477  0.16940573  0.36437187    -0.01200
Br508      Br  0.53483029  0.17523597  0.31109070    -0.01200
C509        C  0.06900667  0.05445555  0.21081312    -0.02300
C510        C  0.07818719  0.06710084  0.18409812     0.07400
C511        C  0.09213792  0.09502861  0.18412589    -0.02400
C512        C  0.09688437  0.11052272  0.21060383    -0.02400
C513        C  0.08646533  0.09844212  0.23720770     0.07500
C514        C  0.07242606  0.07033594  0.23707920    -0.02600
Br515      Br  0.05808059  0.05261044  0.27284157    -0.01100
Br516      Br  0.05003706  0.01587876  0.21192984    -0.01200
Br517      Br  0.11661921  0.14862369  0.20987724    -0.01200
Br518      Br  0.10413534  0.11188272  0.14737998    -0.01200
C519        C  0.09041019  0.45677112  0.12306865    -0.02300
C520        C  0.05747367  0.45404904  0.12066281     0.07400
C521        C  0.04583135  0.42540811  0.12437910    -0.02400
C522        C  0.06207820  0.40610098  0.14354474    -0.02400
C523        C  0.09090982  0.41540342  0.15652924     0.07500
C524        C  0.10693334  0.43864562  0.14289513    -0.02600
Br525      Br  0.15111044  0.44478477  0.15004684    -0.01100
Br526      Br  0.11245086  0.48046987  0.09521044    -0.01200
Br527      Br  0.04322881  0.36917667  0.15353293    -0.01200
Br528      Br  0.00711549  0.41427722  0.10516642    -0.01200
C529        C  0.97002620  0.08133621  0.15222503    -0.02300
C530        C  0.96313894  0.05638223  0.13457841     0.07400
C531        C  0.93013175  0.05009317  0.13051776    -0.02400
C532        C  0.90722169  0.06732679  0.14599123    -0.02400
C533        C  0.91653076  0.09358686  0.16013298     0.07500
C534        C  0.94706836  0.10317459  0.15458473    -0.02600
Br535      Br  0.95933798  0.14333619  0.15925155    -0.01100
Br536      Br  0.98800747  0.07439784  0.19063854    -0.01200
Br537      Br  0.86359892  0.05596321  0.14760916    -0.01200
Br538      Br  0.91580969  0.01573993  0.10926365    -0.01200
C539        C  0.93243081  0.40540300  0.22298932    -0.02300
C540        C  0.92378700  0.42100873  0.24851729     0.07400
C541        C  0.93289733  0.45070239  0.25223898    -0.02400
C542        C  0.95259820  0.46371473  0.23199126    -0.02400
C543        C  0.96025880  0.44881974  0.20584546     0.07500
C544        C  0.94973502  0.41967279  0.20114645    -0.02600
Br545      Br  0.95753819  0.39949287  0.16469774    -0.01100
Br546      Br  0.92189654  0.36444968  0.21840770    -0.01200
Br547      Br  0.97173105  0.50085847  0.24205957    -0.01200
Br548      Br  0.91791344  0.47486269  0.28457422    -0.01200
C549        C  0.59638060  0.19371331  0.16095533    -0.02300
C550        C  0.58178779  0.16698699  0.16814075     0.07400
C551        C  0.55806379  0.15603796  0.14901227    -0.02400
C552        C  0.54446482  0.17497274  0.12767511    -0.02400
C553        C  0.55579461  0.20410115  0.12519708     0.07500
C554        C  0.58629416  0.20889284  0.13608184    -0.02600
Br555      Br  0.61760525  0.22364201  0.10986538    -0.01100
Br556      Br  0.62690453  0.21240579  0.18600632    -0.01200
Br557      Br  0.50796509  0.16270754  0.10546131    -0.01200
Br558      Br  0.54097396  0.11748246  0.15497479    -0.01200
C559        C  0.45964311  0.34262461  0.17219118    -0.02300
C560        C  0.42689378  0.34287689  0.16842615     0.07400
C561        C  0.41366656  0.32317901  0.14759948    -0.02400
C562        C  0.43356363  0.30379181  0.13084231    -0.02400
C563        C  0.46642021  0.30127359  0.13778424     0.07500
C564        C  0.47705075  0.31843165  0.16240889    -0.02600
Br565      Br  0.50879761  0.30495304  0.19057218    -0.01100
Br566      Br  0.48107697  0.37285525  0.19407957    -0.01200
Br567      Br  0.41422658  0.27744396  0.10293484    -0.01200
Br568      Br  0.36838736  0.32247327  0.14294774    -0.01200
C569        C  0.61839896  0.31718258  0.16495947    -0.02300
C570        C  0.58949492  0.32695706  0.15283096     0.07400
C571        C  0.57714111  0.35397472  0.16387965    -0.02400
C572        C  0.58572384  0.36352032  0.19224667    -0.02400
C573        C  0.60913076  0.34818904  0.20809496     0.07500
C574        C  0.62709429  0.32640718  0.19333170    -0.02600
Br575      Br  0.66266409  0.30814472  0.21188438    -0.01100
Br576      Br  0.64767389  0.29457698  0.14129140    -0.01200
Br577      Br  0.56425617  0.39646887  0.20959055    -0.01200
Br578      Br  0.55499358  0.38117754  0.13863393    -0.01200
C579        C  0.43017924  0.18108550  0.19440971    -0.02300
C580        C  0.45320944  0.20188447  0.20220319     0.07400
C581        C  0.45917605  0.20853785  0.23161232    -0.02400
C582        C  0.44219489  0.19451640  0.25359352    -0.02400
C583        C  0.42011680  0.17199060  0.24624112     0.07500
C584        C  0.41391464  0.16571528  0.21628722    -0.02600
Br585      Br  0.38389954  0.13606658  0.20458913    -0.01100
Br586      Br  0.42093102  0.17444540  0.15354165    -0.01200
Br587      Br  0.44802128  0.20916183  0.29327092    -0.01200
Br588      Br  0.49067745  0.23763633  0.24126978    -0.01200
C589        C  0.53429439  0.22485630  0.62175329     0.29600
C590        C  0.49075961  0.27025729  0.62706071     0.29600
C591        C  0.54796791  0.25623072  0.62680281    -0.06600
C592        C  0.51247664  0.22987813  0.59474049    -0.07400
C593        C  0.51026283  0.22251711  0.64654570    -0.07300
C594        C  0.52586674  0.27881438  0.62701362    -0.06600
C595        C  0.48964081  0.25333822  0.59739709    -0.07400
C596        C  0.48832913  0.24510924  0.64864065    -0.07300
C597        C  0.54154039  0.30486023  0.63069352    -0.32700
N598        N  0.57251480  0.29941651  0.63678856     0.13800
C599        C  0.57608372  0.26947863  0.63528623    -0.32700
H600        H  0.59602293  0.25776339  0.64413643     0.15800
C601        C  0.48452542  0.26325934  0.56921309    -0.31700
N602        N  0.50169872  0.24652190  0.55035358     0.12600
C603        C  0.51932335  0.22681481  0.56537553    -0.31600
C604        C  0.46528222  0.23668542  0.66783240    -0.31900
N605        N  0.47323481  0.20984401  0.67799908     0.13100
H606        H  0.44407533  0.24889814  0.67371046     0.15700
C607        C  0.50074038  0.20100535  0.66567708    -0.31900
H608        H  0.51211023  0.18017914  0.67019311     0.15700
H609        H  0.53711181  0.21246341  0.55579179     0.15700
H610        H  0.52951551  0.32564621  0.63296665     0.15800
H611        H  0.47093738  0.28255944  0.56296207     0.15700
C612        C  0.99319413  0.02852756  0.63374626     0.29600
C613        C  0.03832794  0.48200199  0.62432967     0.29600
C614        C  0.99212565  0.50163174  0.65172932    -0.06600
C615        C  0.99070821  0.01281853  0.60374963    -0.07400
C616        C  0.02891072  0.03627522  0.63343431    -0.07300
C617        C  0.01328085  0.47842772  0.64829179    -0.06600
C618        C  0.01771547  0.49101435  0.59781713    -0.07400
C619        C  0.05023372  0.01256399  0.63040753    -0.07300
C620        C  0.00332451  0.45644949  0.66677123    -0.32700
N621        N  0.97597372  0.46526120  0.67953794     0.13800
C622        C  0.96880527  0.49273214  0.67035707    -0.32700
H623        H  0.94817501  0.50537898  0.67705334     0.15800
C624        C  0.02067758  0.48648975  0.56829717    -0.31700
N625        N  0.00311281  0.50723686  0.55453203     0.12600
C626        C  0.98349223  0.02293497  0.57606907    -0.31600
C627        C  0.07794206  0.02168305  0.64386206    -0.31900
N628        N  0.07494193  0.05023156  0.65218457     0.13100
H629        H  0.09678189  0.00747328  0.65168419     0.15700
C630        C  0.04592332  0.05983950  0.64378328    -0.31900
H631        H  0.03616291  0.08103152  0.65021693     0.15700
H632        H  0.97037636  0.04275168  0.57066757     0.15700
H633        H  0.01468841  0.43554440  0.67092525     0.15800
H634        H  0.03562765  0.47028170  0.55747112     0.15700
C635        C  0.47137204  0.22064316  0.94800672     0.29600
C636        C  0.52586619  0.25378100  0.94006549     0.29600
C637        C  0.46809286  0.24843584  0.92923881    -0.06600
C638        C  0.48101420  0.23706516  0.47573694    -0.07400
C639        C  0.50143881  0.20434165  0.93726871    -0.07300
C640        C  0.49538029  0.26399787  0.92477935    -0.06600
C641        C  0.50988735  0.25309424  0.47227359    -0.07400
C642        C  0.52864390  0.22054931  0.93472563    -0.07300
C643        C  0.48673274  0.29111869  0.91359083    -0.32700
N644        N  0.45501337  0.29260951  0.91070807     0.13800
C645        C  0.44335890  0.26805657  0.92293479    -0.32700
H646        H  0.41832742  0.26408695  0.92535054     0.15800
C647        C  0.52112630  0.25676783  0.50080206    -0.31700
N648        N  0.49884712  0.24729781  0.51975988     0.12600
C649        C  0.47454194  0.23512697  0.50487899    -0.31600
C650        C  0.55283277  0.20122361  0.92706174    -0.31900
N651        N  0.54045047  0.17413824  0.92213593     0.13100
H652        H  0.57639306  0.20764256  0.92069199     0.15700
C653        C  0.50989218  0.17550460  0.93080890    -0.31900
H654        H  0.49418496  0.15698459  0.92934312     0.15700
H655        H  0.45485513  0.22400476  0.51471597     0.15700
H656        H  0.50261457  0.30806270  0.90636763     0.15800
H657        H  0.54436233  0.26382100  0.50765083     0.15700
C658        C  0.96377543  0.47821160  0.95558806     0.29600
C659        C  0.99986884  0.02812906  0.94555370     0.29600
C660        C  0.94568540  0.00639441  0.94733097    -0.06600
C661        C  0.98467299  0.49092144  0.48066481    -0.07400
C662        C  0.98856216  0.47654443  0.93124757    -0.07300
C663        C  0.96350780  0.03194217  0.94503301    -0.06600
C664        C  0.00100977  0.01779157  0.47984865    -0.07400
C665        C  0.00684044  0.00157461  0.92560505    -0.07300
C666        C  0.94338424  0.05406348  0.93600067    -0.32700
N667        N  0.91518841  0.04212984  0.92838266     0.13800
C668        C  0.91602702  0.01342948  0.93620562    -0.32700
H669        H  0.89784826  0.99796265  0.93011564     0.15800
C670        C  0.00721943  0.02605720  0.50840998    -0.31700
N671        N  0.99391852  0.00595142  0.52598944     0.12600
C672        C  0.98309221  0.48515725  0.50984673    -0.31600
C673        C  0.03153524  0.49387496  0.90984146    -0.31900
N674        N  0.02718773  0.46614962  0.89985842     0.13100
H675        H  0.05087144  0.50788056  0.90359299     0.15700
C676        C  0.00081762  0.45536032  0.91224933    -0.31900
H677        H  0.99185698  0.43363199  0.90770512     0.15700
H678        H  0.97049920  0.46741516  0.52005085     0.15700
H679        H  0.95086649  0.07571185  0.92936913     0.15800
H680        H  0.01958825  0.04549779  0.51589439     0.15700
O681        O  0.56904492  0.37141421  0.78443183    -0.85800
O682        O  0.60851287  0.33109248  0.75483737    -0.82800
C683        C  0.62022056  0.34885374  0.73713770     0.97700
O684        O  0.63648279  0.36981618  0.74686585    -0.82900
O685        O  0.66461681  0.40888731  0.78555496    -0.85500
C686        C  0.64800506  0.42861893  0.79829534     1.02200
O687        O  0.62807492  0.42211993  0.81739918    -0.78300
O688        O  0.57400343  0.39342918  0.82775096    -0.78500
C689        C  0.55962190  0.39041087  0.80300705     1.02200
O690        O  0.57502217  0.33793265  0.83578256    -0.85800
O691        O  0.62460783  0.30616710  0.80895767    -0.82800
C692        C  0.65082995  0.30074826  0.79667549     0.97700
O693        O  0.66359134  0.31997104  0.78047744    -0.82900
O694        O  0.69039729  0.35902640  0.81674741    -0.85500
C695        C  0.69055691  0.36911651  0.84240342     1.02200
O696        O  0.66654133  0.38262937  0.85277408    -0.78300
O697        O  0.61364808  0.35026728  0.86362912    -0.78400
C698        C  0.58946479  0.33490260  0.85969124     1.02100
Cr699      Cr  0.59655287  0.33850786  0.79668509     1.93700
Cr700      Cr  0.66094497  0.36458756  0.78407355     1.93200
Cr701      Cr  0.62098302  0.38536515  0.83814231     1.39100
O702        O  0.62663276  0.36343343  0.80620752    -1.23500
O703        O  0.55439806  0.12923563  0.76120517    -0.85800
O704        O  0.59478856  0.15318265  0.80041836    -0.82800
C705        C  0.59904025  0.13257446  0.81835937     0.97700
O706        O  0.61829789  0.11168436  0.81227514    -0.82900
O707        O  0.65630532  0.07286014  0.77721944    -0.85500
C708        C  0.63941197  0.05267003  0.76699050     1.02200
O709        O  0.61683947  0.05871839  0.75042082    -0.78300
O710        O  0.56443585  0.08755756  0.73782091    -0.78500
C711        C  0.54705325  0.10312037  0.75488207     1.02200
O712        O  0.58521630  0.16057133  0.71509806    -0.85800
O713        O  0.62981935  0.17967572  0.75400753    -0.82800
C714        C  0.64847784  0.18140922  0.77554414     0.97700
O715        O  0.65439362  0.15883417  0.79034480    -0.82900
O716        O  0.68068117  0.12139480  0.74797653    -0.85500
C717        C  0.68127119  0.10889850  0.72294396     1.02200
O718        O  0.65719342  0.09500465  0.71252145    -0.78300
O719        O  0.60087163  0.12045950  0.69262723    -0.78400
C720        C  0.59014613  0.14633542  0.69191116     1.02100
Cr721      Cr  0.59322628  0.15269905  0.75695529     1.93700
Cr722      Cr  0.64928998  0.11639131  0.77943808     1.93200
Cr723      Cr  0.61057610  0.09330219  0.72566156     1.39100
O724        O  0.61762186  0.12062137  0.75347741    -1.23500
O725        O  0.44323803  0.37880343  0.74441860    -0.85800
O726        O  0.41916725  0.36080594  0.79414017    -0.82800
C727        C  0.40061569  0.35677356  0.81485064     0.97700
O728        O  0.37166076  0.36352491  0.81212745    -0.82900
O729        O  0.35781992  0.42057697  0.78780954    -0.85500
C730        C  0.35542989  0.44137366  0.76953098     1.02200
O731        O  0.35450672  0.43420038  0.74295145    -0.78300
O732        O  0.41910135  0.42156423  0.74462900    -0.78500
C733        C  0.44310187  0.40592746  0.75120484     1.02200
O734        O  0.40247669  0.33656919  0.71281265    -0.85800
O735        O  0.38160442  0.31725732  0.76546899    -0.82800
C736        C  0.35239176  0.31429466  0.76974440     0.97700
O737        O  0.33373579  0.33639326  0.76952724    -0.82900
O738        O  0.31631063  0.39028179  0.74565452    -0.85500
C739        C  0.31700774  0.38624341  0.71801727     1.02200
O740        O  0.34299134  0.38672510  0.70400666    -0.78300
O741        O  0.40980085  0.38021625  0.69560920    -0.78400
C742        C  0.41172398  0.35254973  0.69242592     1.02100
Cr743      Cr  0.40928284  0.35016301  0.75376321     1.93700
Cr744      Cr  0.34731974  0.37823806  0.77683297     1.93200
Cr745      Cr  0.38153285  0.40359840  0.72357039     1.39100
O746        O  0.37888390  0.37662503  0.75136104    -1.23500
O747        O  0.43645220  0.12190270  0.84113727    -0.85800
O748        O  0.42100729  0.14833152  0.79162333    -0.82800
C749        C  0.40568223  0.15193413  0.76840061     0.97700
O750        O  0.37676563  0.14484674  0.76665661    -0.82900
O751        O  0.35567055  0.08833323  0.78439736    -0.85500
C752        C  0.35082640  0.06667784  0.80089700     1.02200
O753        O  0.34521635  0.07271963  0.82699248    -0.78300
O754        O  0.41153219  0.08156255  0.83066459    -0.78500
C755        C  0.43633328  0.09698353  0.82815268     1.02200
O756        O  0.39039299  0.16170374  0.87140667    -0.85800
O757        O  0.38020729  0.18993852  0.81878651    -0.82800
C758        C  0.35276077  0.19444520  0.80834343     0.97700
O759        O  0.33405755  0.17316648  0.80380475    -0.82900
O760        O  0.30997342  0.12010335  0.82421956    -0.85500
C761        C  0.30794633  0.12033488  0.85224509     1.02200
O762        O  0.33230472  0.11552991  0.86841584    -0.78300
O763        O  0.39789277  0.11690809  0.88503636    -0.78400
C764        C  0.39587883  0.14391736  0.89178917     1.02100
Cr765      Cr  0.40469659  0.15379048  0.83095078     1.93700
Cr766      Cr  0.34607615  0.13072116  0.79702893     1.93200
Cr767      Cr  0.37239762  0.09875099  0.85113249     1.39100
O768        O  0.37376245  0.12868118  0.82625371    -1.23500
O769        O  0.06374527  0.38798288  0.73426748    -0.85800
O770        O  0.08334305  0.41076622  0.78597115    -0.82800
C771        C  0.09919310  0.41136961  0.80925948     0.97700
O772        O  0.12773947  0.40276173  0.81020498    -0.82900
O773        O  0.14473834  0.34578058  0.79257140    -0.85500
C774        C  0.14570502  0.32271566  0.77686120     1.02200
O775        O  0.14486985  0.32513606  0.74957419    -0.78300
O776        O  0.08128669  0.34532801  0.74656138    -0.78500
C777        C  0.05892223  0.36428375  0.74761928     1.02200
O778        O  0.11194804  0.42251808  0.70542277    -0.85800
O779        O  0.12641034  0.44859341  0.75852653    -0.82800
C780        C  0.15417630  0.45110670  0.76832921     0.97700
O781        O  0.17133603  0.42826789  0.77218466    -0.82900
O782        O  0.18915219  0.37176764  0.75020525    -0.85500
C783        C  0.18933549  0.36924241  0.72226429     1.02200
O784        O  0.16400109  0.36529093  0.70747243    -0.78300
O785        O  0.10056730  0.37761844  0.69281730    -0.78400
C786        C  0.10338077  0.40442757  0.68597596     1.02100
Cr787      Cr  0.09870768  0.41532230  0.74619784     1.93700
Cr788      Cr  0.15597279  0.38660214  0.77867581     1.93200
Cr789      Cr  0.12264534  0.35573288  0.72597184     1.39100
O790        O  0.12672214  0.38654500  0.75033167    -1.23500
O791        O  0.05309253  0.13136110  0.82432344    -0.85800
O792        O  0.08235707  0.11715160  0.77433605    -0.82800
C793        C  0.10355920  0.11457311  0.75545332     0.97700
O794        O  0.13163469  0.12155511  0.76147155    -0.82900
O795        O  0.13978954  0.17809033  0.78858376    -0.85500
C796        C  0.13888381  0.19832107  0.80808339     1.02200
O797        O  0.13699875  0.19115649  0.83458490    -0.78300
O798        O  0.07382912  0.17476005  0.83021868    -0.78500
C799        C  0.05082494  0.15888373  0.82200401     1.02200
O800        O  0.09417096  0.08950950  0.85502547    -0.85800
O801        O  0.12071803  0.07363440  0.80311204    -0.82800
C802        C  0.15041891  0.07140377  0.80169661     0.97700
O803        O  0.16766335  0.09404559  0.80491213    -0.82900
O804        O  0.18001879  0.14907396  0.83098413    -0.85500
C805        C  0.17887739  0.14337934  0.85803112     1.02200
O806        O  0.15222414  0.14187846  0.87101965    -0.78300
O807        O  0.08472319  0.13177272  0.87586130    -0.78400
C808        C  0.08214692  0.10407332  0.87569943     1.02100
Cr809      Cr  0.08993261  0.10503483  0.81490778     1.93700
Cr810      Cr  0.15199020  0.13592257  0.79836848     1.93200
Cr811      Cr  0.11251216  0.15774318  0.85095934     1.39100
O812        O  0.11846790  0.13244549  0.82138027    -1.23500
O813        O  0.87586522  0.44131006  0.82332693    -0.85800
O814        O  0.89248467  0.41502940  0.87525493    -0.82800
C815        C  0.90366685  0.39752253  0.89383256     0.97700
O816        O  0.90894606  0.37130782  0.88580552    -0.82900
O817        O  0.84473453  0.35976041  0.86940239    -0.85500
C818        C  0.82012559  0.36130356  0.85287317     1.02200
O819        O  0.82195656  0.36251832  0.82496595    -0.78300
O820        O  0.83696869  0.41738620  0.80180998    -0.78500
C821        C  0.84991309  0.44134252  0.80955000     1.02200
O822        O  0.92389919  0.40905049  0.79457201    -0.85800
O823        O  0.94384789  0.38379280  0.84451641    -0.82800
C824        C  0.95002172  0.36037182  0.83032996     0.97700
O825        O  0.92926812  0.34019774  0.83170298    -0.82900
O826        O  0.86532744  0.31895588  0.82997826    -0.85500
C827        C  0.86620885  0.31335047  0.80329997     1.02200
O828        O  0.86962432  0.33471529  0.78614933    -0.78300
O829        O  0.88502354  0.39166419  0.76728490    -0.78400
C830        C  0.91094718  0.40514235  0.77007964     1.02100
Cr831      Cr  0.90700784  0.41003211  0.83413503     1.93700
Cr832      Cr  0.88725509  0.34985412  0.85235226     1.93200
Cr833      Cr  0.85563307  0.37643706  0.79769287     1.39100
O834        O  0.88238819  0.37955772  0.82778041    -1.23500
O835        O  0.93433907  0.12814348  0.75983256    -0.85800
O836        O  0.90450769  0.10500436  0.80680346    -0.82800
C837        C  0.88275434  0.10356668  0.82541904     0.97700
O838        O  0.85513396  0.11227631  0.81946968    -0.82900
O839        O  0.84302922  0.16793672  0.79413582    -0.85500
C840        C  0.84264223  0.18866354  0.77574992     1.02200
O841        O  0.84328898  0.18156999  0.74913028    -0.78300
O842        O  0.90885408  0.17034041  0.75445373    -0.78500
C843        C  0.93309237  0.15593343  0.76348961     1.02200
O844        O  0.89899853  0.08569869  0.72226183    -0.85800
O845        O  0.87179872  0.06454447  0.77086986    -0.82800
C846        C  0.84261264  0.06096941  0.77448010     0.97700
O847        O  0.82343392  0.08279008  0.77511688    -0.82900
O848        O  0.80543733  0.13632123  0.74946984    -0.85500
C849        C  0.80820569  0.13061963  0.72232866     1.02200
O850        O  0.83519076  0.13274778  0.71000393    -0.78300
O851        O  0.90304154  0.12974759  0.70532977    -0.78400
C852        C  0.90718518  0.10241914  0.70209493     1.02100
Cr853      Cr  0.89982679  0.09823655  0.76424371     1.93700
Cr854      Cr  0.83460748  0.12537317  0.78252489     1.93200
Cr855      Cr  0.87234355  0.15132806  0.73180322     1.39100
O856        O  0.86881291  0.12439365  0.75974192    -1.23500
C857        C  0.84424285  0.27345123  0.76878850    -0.02300
C858        C  0.86142403  0.28161429  0.79421656     0.07400
C859        C  0.86929179  0.25911631  0.81453622    -0.02400
C860        C  0.85797470  0.23021718  0.81080939    -0.02400
C861        C  0.84416579  0.22111088  0.78406719     0.07500
C862        C  0.83614942  0.24350465  0.76354606    -0.02600
Br863      Br  0.81021576  0.23441536  0.72980764    -0.01100
Br864      Br  0.83073682  0.30313920  0.74131883    -0.01200
Br865      Br  0.85735932  0.20523885  0.84451737    -0.01200
Br866      Br  0.89793385  0.26644675  0.84707795    -0.01200
C867        C  0.84031927  0.47678788  0.76878557    -0.02300
C868        C  0.83747624  0.47045962  0.79890056     0.07400
C869        C  0.83072445  0.49414208  0.81836706    -0.02400
C870        C  0.82353249  0.02294842  0.80923010    -0.02400
C871        C  0.83255652  0.03022149  0.78050162     0.07500
C872        C  0.84050541  0.00701205  0.76085087    -0.02600
Br873      Br  0.86006240  0.01503827  0.72371487    -0.01100
Br874      Br  0.84468417  0.44530462  0.74038061    -0.01200
Br875      Br  0.81085935  0.05369657  0.83635472    -0.01200
Br876      Br  0.82982364  0.48792239  0.85988254    -0.01200
C877        C  0.01778202  0.17924635  0.78003876    -0.02300
C878        C  0.02029993  0.17084854  0.80975230     0.07400
C879        C  0.99215296  0.16667521  0.82536506    -0.02400
C880        C  0.96255976  0.16674149  0.81068196    -0.02400
C881        C  0.96042002  0.17001255  0.77996102     0.07500
C882        C  0.98783704  0.17955195  0.76547256    -0.02600
Br883      Br  0.98371774  0.19520986  0.72670784    -0.01100
Br884      Br  0.05560548  0.18802562  0.75873663    -0.01200
Br885      Br  0.92484103  0.16371739  0.83313939    -0.01200
Br886      Br  0.99456931  0.15920473  0.86684804    -0.01200
C887        C  0.99141221  0.33315390  0.79677821    -0.02300
C888        C  0.97920080  0.35933569  0.81029847     0.07400
C889        C  0.99347559  0.38622452  0.80188247    -0.02400
C890        C  0.01426458  0.38732625  0.77786974    -0.02400
C891        C  0.02939218  0.36144936  0.76678514     0.07500
C892        C  0.01737626  0.33413598  0.77662486    -0.02600
Br893      Br  0.03429333  0.29784588  0.76055974    -0.01100
Br894      Br  0.97407156  0.29550039  0.80663122    -0.01200
Br895      Br  0.01836397  0.42521874  0.75921872    -0.01200
Br896      Br  0.98780007  0.42272372  0.82375216    -0.01200
C897        C  0.12226802  0.28202462  0.80707287    -0.02300
C898        C  0.14683138  0.29220142  0.78925741     0.07400
C899        C  0.16993940  0.27167528  0.77946251    -0.02400
C900        C  0.16666435  0.24110647  0.78434855    -0.02400
C901        C  0.14119044  0.23057226  0.80095568     0.07500
C902        C  0.11979538  0.25163249  0.81338100    -0.02600
Br903      Br  0.08610953  0.23952985  0.83860661    -0.01100
Br904      Br  0.09140870  0.30973640  0.82233746    -0.01200
Br905      Br  0.19825271  0.21390260  0.76951890    -0.01200
Br906      Br  0.20806058  0.28598737  0.76223808    -0.01200
C907        C  0.16218271  0.48858980  0.80870038    -0.02300
C908        C  0.16413235  0.48149786  0.77848172     0.07400
C909        C  0.16699664  0.50526140  0.75878230    -0.02400
C910        C  0.16575083  0.03450119  0.76318557    -0.02400
C911        C  0.16327998  0.04159232  0.79325795     0.07500
C912        C  0.16315799  0.01811930  0.81331171    -0.02600
Br913      Br  0.15492472  0.02588103  0.85397683    -0.01100
Br914      Br  0.16250036  0.45766636  0.83720369    -0.01200
Br915      Br  0.17123310  0.06553650  0.73537467    -0.01200
Br916      Br  0.16498344  0.49861684  0.71721513    -0.01200
C917        C  0.25499443  0.10430657  0.87259227    -0.02300
C918        C  0.27608800  0.12693595  0.86524779     0.07400
C919        C  0.26463229  0.15622609  0.86582888    -0.02400
C920        C  0.23212016  0.16248565  0.86943916    -0.02400
C921        C  0.21036582  0.13953842  0.87259131     0.07500
C922        C  0.22245040  0.11090729  0.87726242    -0.02600
Br923      Br  0.19394547  0.08109694  0.88948317    -0.01100
Br924      Br  0.27002867  0.06416861  0.87361136    -0.01200
Br925      Br  0.21640438  0.20244910  0.86695500    -0.01200
Br926      Br  0.29290139  0.18789589  0.85923132    -0.01200
C927        C  0.26495530  0.40681342  0.70421946    -0.02300
C928        C  0.28593099  0.38270686  0.70333576     0.07400
C929        C  0.27348075  0.35432419  0.69877883    -0.02400
C930        C  0.24044357  0.34978357  0.70038992    -0.02400
C931        C  0.22019947  0.37355694  0.70755559     0.07500
C932        C  0.23235932  0.40218035  0.70679224    -0.02600
Br933      Br  0.20459329  0.43507356  0.71156163    -0.01100
Br934      Br  0.28124403  0.44614847  0.70500785    -0.01200
Br935      Br  0.22297096  0.31156906  0.69295377    -0.01200
Br936      Br  0.30184500  0.32177917  0.69239080    -0.01200
C937        C  0.34195054  0.24908371  0.81826486    -0.02300
C938        C  0.34416270  0.22501132  0.79842731     0.07400
C939        C  0.34346057  0.23114209  0.76808164    -0.02400
C940        C  0.34479758  0.26049598  0.75817623    -0.02400
C941        C  0.34187256  0.28433673  0.77807507     0.07500
C942        C  0.33821372  0.27818301  0.80803490    -0.02600
Br943      Br  0.33114164  0.31005172  0.83560135    -0.01100
Br944      Br  0.34753037  0.24346039  0.85940295    -0.01200
Br945      Br  0.35424727  0.26783094  0.71770855    -0.01200
Br946      Br  0.34347535  0.19957823  0.73961965    -0.01200
C947        C  0.35746024  0.48360914  0.80755598    -0.02300
C948        C  0.35355586  0.47399087  0.77806946     0.07400
C949        C  0.34906724  0.49642005  0.75642601    -0.02400
C950        C  0.35115822  0.02587879  0.76143753    -0.02400
C951        C  0.35198133  0.03451277  0.79129839     0.07500
C952        C  0.35419677  0.01169469  0.81258738    -0.02600
Br953      Br  0.36188488  0.02017290  0.85382271    -0.01100
Br954      Br  0.36102039  0.45592063  0.83932996    -0.01200
Br955      Br  0.34489477  0.05490313  0.73114130    -0.01200
Br956      Br  0.34955042  0.48811085  0.71474504    -0.01200
C957        C  0.52110320  0.08183008  0.79990897    -0.02300
C958        C  0.51836090  0.09114836  0.77040491     0.07400
C959        C  0.48757512  0.09471056  0.75900783    -0.02400
C960        C  0.46075541  0.09046215  0.77709281    -0.02400
C961        C  0.46379447  0.08839881  0.80801103     0.07500
C962        C  0.49449729  0.08252535  0.81899907    -0.02600
Br963      Br  0.49976609  0.07412854  0.85994899    -0.01100
Br964      Br  0.56112833  0.06705919  0.81378634    -0.01200
Br965      Br  0.42100829  0.08284544  0.75869267    -0.01200
Br966      Br  0.48220963  0.10604575  0.71878813    -0.01200
C967        C  0.72374175  0.13620023  0.69613726    -0.02300
C968        C  0.71242539  0.10956437  0.70743131     0.07400
C969        C  0.73456889  0.08677474  0.71209065    -0.02400
C970        C  0.76735083  0.09249989  0.71066967    -0.02400
C971        C  0.77849179  0.12135683  0.70668581     0.07500
C972        C  0.75650791  0.14260759  0.69686188    -0.02600
Br973      Br  0.77139287  0.18033997  0.68488450    -0.01100
Br974      Br  0.69449275  0.16223825  0.67739789    -0.01200
Br975      Br  0.79699226  0.06083355  0.71376530    -0.01200
Br976      Br  0.71993008  0.04823093  0.72203780    -0.01200
C977        C  0.50178606  0.40210721  0.81117600    -0.02300
C978        C  0.52993780  0.40693727  0.79577700     0.07400
C979        C  0.52801000  0.42334095  0.76973962    -0.02400
C980        C  0.49864405  0.42637505  0.75482458    -0.03200
C981        C  0.47067141  0.41737154  0.76850388     0.07500
C982        C  0.47257210  0.41041814  0.79847837    -0.02600
Br983      Br  0.43684257  0.41836493  0.82299956    -0.01100
Br984      Br  0.50252997  0.38228298  0.84821538    -0.01200
Br985      Br  0.49632684  0.44364584  0.71667254    -0.01200
Br986      Br  0.56466537  0.44453295  0.75750865    -0.01200
C987        C  0.73864615  0.39048953  0.86687353    -0.02300
C988        C  0.72095774  0.36554351  0.85885708     0.07400
C989        C  0.73647689  0.33773370  0.85840408    -0.02400
C990        C  0.76965233  0.33559602  0.86119121    -0.02400
C991        C  0.78763596  0.36118785  0.86476790     0.07500
C992        C  0.77186148  0.38822551  0.86964866    -0.02600
Br993      Br  0.79627619  0.42284770  0.87595631    -0.01100
Br994      Br  0.71839157  0.42847534  0.86985754    -0.01200
Br995      Br  0.79108529  0.29811367  0.85631813    -0.01200
Br996      Br  0.71279142  0.30260434  0.85125995    -0.01200
C997        C  0.65170281  0.25138869  0.82011428    -0.02300
C998        C  0.66393663  0.27035852  0.79894558     0.07400
C999        C  0.68288321  0.25793287  0.77672886    -0.02400
C1000       C  0.67917744  0.22801186  0.76923942    -0.02400
C1001       C  0.65934256  0.21038118  0.78620314     0.07500
C1002       C  0.64903083  0.22133402  0.81364280    -0.02600
Br1003     Br  0.63020930  0.19642439  0.84228641    -0.01100
Br1004     Br  0.64086110  0.26617235  0.85858411    -0.01200
Br1005     Br  0.70252096  0.21093955  0.73734444    -0.01200
Br1006     Br  0.71794968  0.27967587  0.76176745    -0.01200
C1007       C  0.64919073  0.48189565  0.81369113    -0.02300
C1008       C  0.65078492  0.46034933  0.79097433     0.07400
C1009       C  0.65056968  0.46960298  0.76152742    -0.02400
C1010       C  0.64676518  0.99955317  0.75222968    -0.02400
C1011       C  0.64553016  0.02144093  0.77453055     0.07500
C1012       C  0.64765461  0.01304646  0.80406717    -0.02600
Br1013     Br  0.64552585  0.04243472  0.83494636    -0.01100
Br1014     Br  0.65011833  0.47072748  0.85440861    -0.01200
Br1015     Br  0.64429991  0.01044729  0.71146777    -0.01200
Br1016     Br  0.65251462  0.44114168  0.72978654    -0.01200
C1017       C  0.04753414  0.06636549  0.94311965    -0.02300
C1018       C  0.01894591  0.05400580  0.93146417     0.07400
C1019       C  0.01182119  0.06070288  0.90129048    -0.02400
C1020       C  0.03276263  0.07643945  0.88382048    -0.02400
C1021       C  0.06006317  0.08903441  0.89587773     0.07500
C1022       C  0.06661863  0.08513451  0.92583436    -0.02600
Br1023     Br  0.10390710  0.10344947  0.94211019    -0.01100
Br1024     Br  0.06551391  0.05457436  0.97990651    -0.01200
Br1025     Br  0.02493679  0.07806901  0.84186503    -0.01200
Br1026     Br  0.97707442  0.04361818  0.87947113    -0.01200
C1027       C  0.08273483  0.41296195  0.86226213    -0.02300
C1028       C  0.08400369  0.42584769  0.83441503     0.07400
C1029       C  0.06826501  0.45288295  0.82931038    -0.02400
C1030       C  0.04811002  0.46476617  0.85028931    -0.02400
C1031       C  0.04620255  0.45198274  0.87796979     0.07500
C1032       C  0.06429037  0.42651992  0.88432906    -0.02600
Br1033     Br  0.06451059  0.41089232  0.92323450    -0.01100
Br1034     Br  0.10564176  0.37698816  0.87007635    -0.01200
Br1035     Br  0.02055901  0.49668000  0.83929245    -0.01200
Br1036     Br  0.07477346  0.47522588  0.79411915    -0.01200
C1037       C  0.89627035  0.43049452  0.93801190    -0.02300
C1038       C  0.91440407  0.40899267  0.92291492     0.07400
C1039       C  0.94493135  0.40221180  0.93421794    -0.02400
C1040       C  0.95919361  0.42210884  0.95420535    -0.02400
C1041       C  0.94457757  0.44966002  0.95932736     0.07500
C1042       C  0.91138810  0.44997587  0.95765991    -0.02600
Br1043     Br  0.89032272  0.97116270  0.98596041    -0.01100
Br1044     Br  0.85128243  0.43246736  0.93277460    -0.01200
Br1045     Br  0.99914944  0.41339689  0.97272213    -0.01200
Br1046     Br  0.96889336  0.36854579  0.92043586    -0.01200
C1047       C  0.88461335  0.08235191  0.90602903    -0.02300
C1048       C  0.89737903  0.05366070  0.90398596     0.07400
C1049       C  0.90126817  0.04057384  0.87598451    -0.02400
C1050       C  0.90033673  0.05838642  0.85116550    -0.02400
C1051       C  0.88857312  0.08758118  0.85304837     0.07500
C1052       C  0.87861306  0.09875932  0.88050797    -0.02600
Br1053     Br  0.85899441  0.13701539  0.88378003    -0.01100
Br1054     Br  0.87636958  0.09892666  0.94423049    -0.01200
Br1055     Br  0.91805823  0.04265532  0.81535994    -0.01200
Br1056     Br  0.91094459  0.99897936  0.87072516    -0.01200
C1057       C  0.57904199  0.31811853  0.91223507    -0.02300
C1058       C  0.57811469  0.31286615  0.88161477     0.07400
C1059       C  0.56540122  0.28612686  0.87130318    -0.02400
C1060       C  0.55377204  0.26512954  0.89091946    -0.02400
C1061       C  0.55168121  0.27103997  0.92225401     0.07500
C1062       C  0.56534574  0.29795869  0.93219852    -0.02600
Br1063     Br  0.56294029  0.30998092  0.97243382    -0.01100
Br1064     Br  0.59597211  0.35485240  0.92685971    -0.01200
Br1065     Br  0.53649755  0.23057230  0.87105273    -0.01200
Br1066     Br  0.56288575  0.27765952  0.82920093    -0.01200
C1067       C  0.44340173  0.17017243  0.95714729    -0.02300
C1068       C  0.44208905  0.19982112  0.94644087     0.07400
C1069       C  0.41648249  0.20555975  0.92661840    -0.02400
C1070       C  0.39186265  0.18563244  0.92617586    -0.02400
C1071       C  0.40153336  0.15652683  0.92208418     0.07500
C1072       C  0.42656358  0.14779501  0.94103330    -0.02600
Br1073     Br  0.43830260  0.10703321  0.94387234    -0.01100
Br1074     Br  0.47061558  0.15941752  0.98940181    -0.01200
Br1075     Br  0.34946004  0.19782243  0.91783901    -0.01200
Br1076     Br  0.42520533  0.21585037  0.88641831    -0.01200
C1077       C  0.44559697  0.29988471  0.85833072    -0.02300
C1078       C  0.43961045  0.30846586  0.88745947     0.07400
C1079       C  0.41953724  0.33270182  0.89321752    -0.02400
C1080       C  0.40597187  0.34871831  0.86976505    -0.02400
C1081       C  0.41319914  0.34068388  0.84051736     0.07500
C1082       C  0.43301833  0.31588314  0.83505859    -0.02600
Br1083     Br  0.44322833  0.30216061  0.79570457    -0.01100
Br1084     Br  0.47086094  0.26555330  0.84965720    -0.01200
Br1085     Br  0.37894931  0.38215374  0.87789229    -0.01200
Br1086     Br  0.41159207  0.34390921  0.93323775    -0.01200
C1087       C  0.59760056  0.13265009  0.87392007    -0.02300
C1088       C  0.58170538  0.13523814  0.84667331     0.07400
C1089       C  0.54988262  0.14573709  0.84649619    -0.02400
C1090       C  0.53428700  0.15258173  0.87261326    -0.02400
C1091       C  0.55180239  0.15480345  0.89902318     0.07500
C1092       C  0.58309216  0.14363948  0.89976060    -0.02600
Br1093     Br  0.60626087  0.14489502  0.93618721    -0.01100
Br1094     Br  0.64083511  0.11870702  0.87556444    -0.01200
Br1095     Br  0.48935318  0.16201310  0.87008355    -0.01200
Br1096     Br  0.52746757  0.15647259  0.81114621    -0.01200
C1097       C  0.08305416  0.05123605  0.70531711    -0.02300
C1098       C  0.08985762  0.06288604  0.67756411     0.07400
C1099       C  0.10328941  0.09094878  0.67559402    -0.02400
C1100       C  0.10787253  0.10828174  0.70096818    -0.02400
C1101       C  0.09696039  0.09820568  0.72814184     0.07500
C1102       C  0.08412027  0.06962097  0.73008349    -0.02600
Br1103     Br  0.06610361  0.05517034  0.76596199    -0.01100
Br1104     Br  0.06965241  0.01074595  0.70976420    -0.01200
Br1105     Br  0.12705733  0.14644607  0.69814674    -0.01200
Br1106     Br  0.11478057  0.10524393  0.63769373    -0.01200
C1107       C  0.09331842  0.45723422  0.62344836    -0.02300
C1108       C  0.06041011  0.45480941  0.62027762     0.07400
C1109       C  0.04830675  0.42637204  0.62412500    -0.02400
C1110       C  0.06351544  0.40726911  0.64418308    -0.02400
C1111       C  0.09275138  0.41579934  0.65693611     0.07500
C1112       C  0.10928963  0.43881326  0.64341765    -0.02600
Br1113     Br  0.15334381  0.44474778  0.65145988    -0.01100
Br1114     Br  0.11617167  0.48146773  0.59663507    -0.01200
Br1115     Br  0.04195226  0.37243268  0.65653068    -0.01200
Br1116     Br  0.00997293  0.41546391  0.60407616    -0.01200
C1117       C  0.97878494  0.07112263  0.66888154    -0.02300
C1118       C  0.96946225  0.05286136  0.64484743     0.07400
C1119       C  0.93596622  0.05183901  0.63963711    -0.02400
C1120       C  0.91475093  0.06915648  0.65724953    -0.02400
C1121       C  0.92652964  0.09011826  0.67751939     0.07500
C1122       C  0.95920294  0.09356129  0.67942737    -0.02600
Br1123     Br  0.97775301  0.12382379  0.70344207    -0.01100
Br1124     Br  0.00612554  0.05668613  0.69942352    -0.01200
Br1125     Br  0.86965013  0.06387431  0.65460653    -0.01200
Br1126     Br  0.91766711  0.02320294  0.61329239    -0.01200
C1127       C  0.93035024  0.40631930  0.71779122    -0.02300
C1128       C  0.92582514  0.42002871  0.74527254     0.07400
C1129       C  0.93670191  0.44905235  0.75005693    -0.02400
C1130       C  0.95461092  0.46294168  0.72893732    -0.02400
C1131       C  0.95899037  0.44964098  0.70141844     0.07500
C1132       C  0.94621206  0.42153328  0.69556351    -0.02600
Br1133     Br  0.94929583  0.40440070  0.65701708    -0.01100
Br1134     Br  0.91591760  0.36671816  0.71087520    -0.01200
Br1135     Br  0.97583880  0.49897043  0.73923137    -0.01200
Br1136     Br  0.92625209  0.47129407  0.78500153    -0.01200
C1137       C  0.59818120  0.18701188  0.65595405    -0.02300
C1138       C  0.58284695  0.16076525  0.66357465     0.07400
C1139       C  0.55870163  0.15014917  0.64466188    -0.02400
C1140       C  0.54557892  0.16918267  0.62316154    -0.02400
C1141       C  0.55731142  0.19815097  0.62085811     0.07500
C1142       C  0.58811356  0.20226686  0.63114093    -0.02600
Br1143     Br  0.61899015  0.21769677  0.60488220    -0.01100
Br1144     Br  0.62919222  0.20536230  0.68069868    -0.01200
Br1145     Br  0.50897526  0.15760080  0.60072464    -0.01200
Br1146     Br  0.53977367  0.11254006  0.65160785    -0.01200
C1147       C  0.46325126  0.33623728  0.67385285    -0.02300
C1148       C  0.43077603  0.33856119  0.66866536     0.07400
C1149       C  0.41729525  0.32016329  0.64684842    -0.02400
C1150       C  0.43659427  0.29974788  0.63070843    -0.02400
C1151       C  0.46903677  0.29557478  0.63862669     0.07500
C1152       C  0.47973435  0.31158556  0.66389552    -0.02600
Br1153     Br  0.51126885  0.29674385  0.69154678    -0.01100
Br1154     Br  0.48591982  0.36528457  0.69618866    -0.01200
Br1155     Br  0.41639500  0.27414813  0.60261664    -0.01200
Br1156     Br  0.37247357  0.32311541  0.63957033    -0.01200
C1157       C  0.62290676  0.31012058  0.66358993    -0.02300
C1158       C  0.59365823  0.31988533  0.65189771     0.07400
C1159       C  0.58242278  0.34769041  0.66185625    -0.02400
C1160       C  0.59173624  0.35817782  0.68962789    -0.02400
C1161       C  0.61565232  0.34346222  0.70533831     0.07500
C1162       C  0.63336421  0.32140695  0.69077785    -0.02600
Br1163     Br  0.67192703  0.30702922  0.70767810    -0.01100
Br1164     Br  0.65092409  0.28559436  0.64048579    -0.01200
Br1165     Br  0.57079475  0.39175737  0.70616895    -0.01200
Br1166     Br  0.56073333  0.37431782  0.63567163    -0.01200
C1167       C  0.43314659  0.17408091  0.69233759    -0.02300
C1168       C  0.45653833  0.19453681  0.70002194     0.07400
C1169       C  0.46269523  0.20143459  0.72932230    -0.02400
C1170       C  0.44492956  0.18854669  0.75133732    -0.02400
C1171       C  0.42235393  0.16648358  0.74414509     0.07500
C1172       C  0.41619435  0.15966364  0.71433220    -0.02600
Br1173     Br  0.38513522  0.13080676  0.70305122    -0.01100
Br1174     Br  0.42465787  0.16636175  0.65150596    -0.01200
Br1175     Br  0.45009850  0.20431194  0.79070242    -0.01200
Br1176     Br  0.49574016  0.22904582  0.73882386    -0.01200
C1177       C  0.52859840  0.72673224  0.12233518     0.29600
C1178       C  0.48599397  0.77314677  0.12585666     0.29600
C1179       C  0.54275682  0.75792204  0.12738511    -0.06600
C1180       C  0.50784701  0.73188555  0.09445689    -0.07400
C1181       C  0.50360055  0.72525612  0.14642273    -0.07300
C1182       C  0.52124832  0.78093893  0.12651266    -0.06600
C1183       C  0.48546572  0.75594799  0.09623737    -0.07400
C1184       C  0.48211533  0.74823494  0.14750341    -0.07300
C1185       C  0.53737287  0.80676036  0.13009174    -0.32700
N1186       N  0.56790331  0.80082721  0.13737734     0.13800
C1187       C  0.57081631  0.77078342  0.13652285    -0.32700
H1188       H  0.59013130  0.75879328  0.14611107     0.15800
C1189       C  0.48217617  0.76614380  0.06788340    -0.31700
N1190       N  0.50002578  0.74932315  0.04960422     0.12600
C1191       C  0.51613939  0.72897542  0.06530173    -0.31600
C1192       C  0.45844213  0.74078853  0.16650776    -0.31900
N1193       N  0.46559133  0.71414440  0.17760681     0.13100
H1194       H  0.43747383  0.75363150  0.17179026     0.15700
C1195       C  0.49326202  0.70455176  0.16610624    -0.31900
H1196       H  0.50430828  0.68380717  0.17162765     0.15700
H1197       H  0.53395136  0.71420917  0.05640562     0.15700
H1198       H  0.52571088  0.82785833  0.13170754     0.15800
H1199       H  0.46928122  0.78570591  0.06121518     0.15700
C1200       C  0.99301211  0.52723033  0.13468920     0.29600
C1201       C  0.03200120  0.98678766  0.12460172     0.29600
C1202       C  0.98548523  0.00758636  0.15050781    -0.06600
C1203       C  0.99109544  0.51247484  0.10401591    -0.07400
C1204       C  0.02873242  0.53485700  0.13512218    -0.07300
C1205       C  0.00716238  0.98456651  0.14874113    -0.06600
C1206       C  0.01152379  0.99287194  0.09749597    -0.07400
C1207       C  0.05004452  0.51132550  0.13170536    -0.07300
C1208       C  0.99761079  0.96352802  0.16825375    -0.32700
N1209       N  0.97015715  0.97274574  0.18050537     0.13800
C1210       C  0.96256980  0.99962446  0.17001288    -0.32700
H1211       H  0.94151757  0.01206431  0.17585706     0.15800
C1212       C  0.01518071  0.98621664  0.06849880    -0.31700
N1213       N  0.99690563  0.00513954  0.05315162     0.12600
C1214       C  0.98439019  0.52324682  0.07634674    -0.31600
C1215       C  0.07853269  0.52093971  0.14323025    -0.31900
N1216       N  0.07561853  0.54952456  0.15152367     0.13100
H1217       H  0.09823470  0.50715239  0.14986356     0.15700
C1218       C  0.04598786  0.55873006  0.14444911    -0.31900
H1219       H  0.03620628  0.57986795  0.15109113     0.15700
H1220       H  0.97086960  0.54289223  0.07118112     0.15700
H1221       H  0.00903811  0.94273254  0.17298260     0.15800
H1222       H  0.03139221  0.97020609  0.05902404     0.15700
C1223       C  0.46583087  0.72501473  0.44855182     0.29600
C1224       C  0.52121108  0.75676287  0.44017652     0.29600
C1225       C  0.46297218  0.75307207  0.43023618    -0.06600
C1226       C  0.48104530  0.73967476  0.97445585    -0.07400
C1227       C  0.49505975  0.70820072  0.43673644    -0.07300
C1228       C  0.49067995  0.76798919  0.42554904    -0.06600
C1229       C  0.51001956  0.75569670  0.97131533    -0.07400
C1230       C  0.52274031  0.72370779  0.43409951    -0.07300
C1231       C  0.48261424  0.79529595  0.41450372    -0.32700
N1232       N  0.45090775  0.79742278  0.41177317     0.13800
C1233       C  0.43870510  0.77317030  0.42413436    -0.32700
H1234       H  0.41359513  0.76968186  0.42665471     0.15800
C1235       C  0.52069675  0.75945436  0.00014177    -0.31700
N1236       N  0.49806925  0.74994512  0.01885418     0.12600
C1237       C  0.47406846  0.73778356  0.00352215    -0.31600
C1238       C  0.54647770  0.70372901  0.42732968    -0.31900
N1239       N  0.53334528  0.67701287  0.42233508     0.13100
H1240       H  0.57049368  0.70938602  0.42167867     0.15700
C1241       C  0.50260578  0.67918267  0.43020082    -0.31900
H1242       H  0.48629612  0.66117015  0.42806470     0.15700
H1243       H  0.45428995  0.72652412  0.01303829     0.15700
H1244       H  0.49884327  0.81184354  0.40705273     0.15800
H1245       H  0.54378458  0.76673209  0.00724918     0.15700
C1246       C  0.96232195  0.98527556  0.45352309     0.29600
C1247       C  0.99879009  0.53153784  0.44618590     0.29600
C1248       C  0.94441400  0.51009127  0.44883470    -0.06600
C1249       C  0.98597516  0.98651984  0.97884985    -0.07400
C1250       C  0.98755811  0.98477851  0.42969340    -0.07300
C1251       C  0.96240503  0.53548493  0.44578888    -0.06600
C1252       C  0.00218764  0.51424482  0.97863598    -0.07400
C1253       C  0.00529258  0.50447938  0.42680603    -0.07300
C1254       C  0.94221278  0.55755668  0.43670865    -0.32700
N1255       N  0.91370905  0.54570504  0.43000381     0.13800
C1256       C  0.91454137  0.51714318  0.43825197    -0.32700
H1257       H  0.89610196  0.50173411  0.43276652     0.15800
C1258       C  0.00593423  0.52532409  0.00694528    -0.31700
N1259       N  0.99388898  0.50578466  0.02599931     0.12600
C1260       C  0.98178294  0.98143554  0.00787666    -0.31600
C1261       C  0.03031706  0.00318087  0.40893633    -0.31900
N1262       N  0.02571471  0.97594789  0.39786953     0.13100
H1263       H  0.04988003  0.01709716  0.40323613     0.15700
C1264       C  0.99936746  0.96461525  0.40968400    -0.31900
H1265       H  0.99031112  0.94307079  0.40431188     0.15700
H1266       H  0.96837214  0.96387599  0.01749303     0.15700
H1267       H  0.94964052  0.57905800  0.42958697     0.15800
H1268       H  0.01564953  0.54637000  0.01333444     0.15700
O1269       O  0.56235484  0.87652996  0.28705094    -0.85800
O1270       O  0.60060538  0.83446336  0.25787405    -0.82800
C1271       C  0.61205848  0.85147502  0.23933852     0.97700
O1272       O  0.62793615  0.87306742  0.24820169    -0.82900
O1273       O  0.65708287  0.91332466  0.28496818    -0.85500
C1274       C  0.64226981  0.93352250  0.29878639     1.02200
O1275       O  0.62374097  0.92761223  0.31931278    -0.78300
O1276       O  0.56855558  0.90002708  0.32959731    -0.78500
C1277       C  0.55370558  0.89640816  0.30509199     1.02200
O1278       O  0.56835328  0.84471717  0.33886266    -0.85800
O1279       O  0.61759857  0.81114778  0.31229484    -0.82800
C1280       C  0.64358511  0.80550218  0.29956101     0.97700
O1281       O  0.65607954  0.82451479  0.28293254    -0.82900
O1282       O  0.68428784  0.86481203  0.31684617    -0.85500
C1283       C  0.68503117  0.87386776  0.34287639     1.02200
O1284       O  0.66118273  0.88676414  0.35431602    -0.78300
O1285       O  0.60759989  0.85600464  0.36602585    -0.78400
C1286       C  0.58318852  0.84092043  0.36236150     1.02100
Cr1287     Cr  0.58953389  0.84358547  0.29968024     1.93700
Cr1288     Cr  0.65354155  0.86913867  0.28499940     1.93200
Cr1289     Cr  0.61551144  0.89083933  0.34005526     1.39100
O1290       O  0.62004052  0.86852173  0.30814143    -1.23500
O1291       O  0.55249442  0.63433543  0.26456835    -0.85800
O1292       O  0.59356418  0.65903557  0.30260337    -0.82800
C1293       C  0.59621510  0.63827914  0.32052890     0.97700
O1294       O  0.61501485  0.61692347  0.31506025    -0.82900
O1295       O  0.65265646  0.57692684  0.28139994    -0.85500
C1296       C  0.63504313  0.55701466  0.27172880     1.02200
O1297       O  0.61242542  0.56335421  0.25526526    -0.78300
O1298       O  0.56108766  0.59304146  0.24015191    -0.78500
C1299       C  0.54417267  0.60865707  0.25760243     1.02200
O1300       O  0.58285832  0.66415220  0.21710830    -0.85800
O1301       O  0.62865898  0.68379733  0.25573933    -0.82800
C1302       C  0.64690431  0.68574934  0.27765060     0.97700
O1303       O  0.65257455  0.66324084  0.29269933    -0.82900
O1304       O  0.67863627  0.62424931  0.25184880    -0.85500
C1305       C  0.67934405  0.61066978  0.22741930     1.02200
O1306       O  0.65501470  0.59708710  0.21706268    -0.78300
O1307       O  0.59986192  0.62410134  0.19527775    -0.78400
C1308       C  0.58816788  0.64966617  0.19408653     1.02100
Cr1309     Cr  0.59150999  0.65739676  0.25925551     1.93700
Cr1310     Cr  0.64666758  0.62059428  0.28278290     1.93200
Cr1311     Cr  0.60793623  0.59724667  0.22914299     1.39100
O1312       O  0.61540149  0.62497432  0.25640050    -1.23500
O1313       O  0.43922951  0.88234429  0.24400315    -0.85800
O1314       O  0.41600418  0.86322218  0.29350710    -0.82800
C1315       C  0.39755094  0.85981555  0.31441137     0.97700
O1316       O  0.36866876  0.86671855  0.31175769    -0.82900
O1317       O  0.35542906  0.92333080  0.28752722    -0.85500
C1318       C  0.35206328  0.94400637  0.26931742     1.02200
O1319       O  0.34979140  0.93681966  0.24283217    -0.78300
O1320       O  0.41451900  0.92488458  0.24395746    -0.78500
C1321       C  0.43865511  0.90952763  0.25068275     1.02200
O1322       O  0.39877286  0.83994319  0.21193167    -0.85800
O1323       O  0.37768084  0.82012052  0.26457029    -0.82800
C1324       C  0.34848236  0.81748797  0.26953464     0.97700
O1325       O  0.33006125  0.83972477  0.26967727    -0.82900
O1326       O  0.31249879  0.89338562  0.24600668    -0.85500
C1327       C  0.31263061  0.88985392  0.21828318     1.02200
O1328       O  0.33841478  0.88973770  0.20390437    -0.78300
O1329       O  0.40556679  0.88371922  0.19488067    -0.78400
C1330       C  0.40794267  0.85608367  0.19163137     1.02100
Cr1331     Cr  0.40556741  0.85318031  0.25302033     1.93700
Cr1332     Cr  0.34402326  0.88132042  0.27676751     1.93200
Cr1333     Cr  0.37709626  0.90665454  0.22310965     1.39100
O1334       O  0.37505765  0.87955628  0.25087121    -1.23500
O1335       O  0.43145603  0.62777634  0.34204034    -0.85800
O1336       O  0.41492139  0.65438657  0.29255821    -0.82800
C1337       C  0.39927663  0.65680368  0.26928817     0.97700
O1338       O  0.37084185  0.64820499  0.26769099    -0.82900
O1339       O  0.35036787  0.59158351  0.28669313    -0.85500
C1340       C  0.34543080  0.57035851  0.30376774     1.02200
O1341       O  0.34066983  0.57719000  0.32975388    -0.78300
O1342       O  0.40723565  0.58688800  0.33195323    -0.78500
C1343       C  0.43174276  0.60275597  0.32928598     1.02200
O1344       O  0.38479684  0.66656650  0.37284114    -0.85800
O1345       O  0.37364052  0.69455102  0.32054829    -0.82800
C1346       C  0.34646879  0.69848826  0.30943987     0.97700
O1347       O  0.32833953  0.67688961  0.30438323    -0.82900
O1348       O  0.30516028  0.62427186  0.32643206    -0.85500
C1349       C  0.30366258  0.62519395  0.35447563     1.02200
O1350       O  0.32822442  0.62050871  0.37041998    -0.78300
O1351       O  0.39387974  0.62202201  0.38621013    -0.78400
C1352       C  0.39081616  0.64884894  0.39314820     1.02100
Cr1353     Cr  0.39896285  0.65904222  0.33220100     1.93700
Cr1354     Cr  0.34071214  0.63438976  0.29856499     1.93200
Cr1355     Cr  0.36812191  0.60367938  0.35282010     1.39100
O1356       O  0.36868865  0.63327430  0.32761129    -1.23500
O1357       O  0.05873432  0.89215443  0.23416062    -0.85800
O1358       O  0.07828940  0.91547271  0.28528836    -0.82800
C1359       C  0.09415260  0.91621770  0.30849996     0.97700
O1360       O  0.12227813  0.90640796  0.30978945    -0.82900
O1361       O  0.13898869  0.84899144  0.29153909    -0.85500
C1362       C  0.14088154  0.82629036  0.27535056     1.02200
O1363       O  0.14075522  0.82948754  0.24815333    -0.78300
O1364       O  0.07666314  0.84936134  0.24596042    -0.78500
C1365       C  0.05429389  0.86837189  0.24754465     1.02200
O1366       O  0.10746452  0.92634995  0.20507341    -0.85800
O1367       O  0.12210804  0.95213066  0.25771265    -0.82800
C1368       C  0.14960465  0.95416049  0.26816351     0.97700
O1369       O  0.16632415  0.93123026  0.27240786    -0.82900
O1370       O  0.18391828  0.87582584  0.24974435    -0.85500
C1371       C  0.18417455  0.87516384  0.22170999     1.02200
O1372       O  0.15895542  0.87101004  0.20675512    -0.78300
O1373       O  0.09515760  0.88178576  0.19254420    -0.78400
C1374       C  0.09841552  0.90846690  0.18571565     1.02100
Cr1375     Cr  0.09388636  0.91942943  0.24566609     1.93700
Cr1376     Cr  0.15059430  0.89001673  0.27837285     1.93200
Cr1377     Cr  0.11783510  0.86012825  0.22520237     1.39100
O1378       O  0.12159193  0.89051649  0.24993055    -1.23500
O1379       O  0.05174996  0.63312641  0.32056587    -0.85800
O1380       O  0.08310367  0.61787830  0.27184295    -0.82800
C1381       C  0.10499227  0.61533596  0.25359783     0.97700
O1382       O  0.13263302  0.62329192  0.26019272    -0.82900
O1383       O  0.13868265  0.68059786  0.28680355    -0.85500
C1384       C  0.13678839  0.70111783  0.30597787     1.02200
O1385       O  0.13443966  0.69418727  0.33251048    -0.78300
O1386       O  0.07166047  0.67694979  0.32705302    -0.78500
C1387       C  0.04908835  0.66070439  0.31863871     1.02200
O1388       O  0.09225543  0.59242550  0.35361626    -0.85800
O1389       O  0.12099684  0.57595613  0.30323577    -0.82800
C1390       C  0.15070874  0.57404815  0.30242915     0.97700
O1391       O  0.16756950  0.59703185  0.30513931    -0.82900
O1392       O  0.17794100  0.65273446  0.33096041    -0.85500
C1393       C  0.17574069  0.64753883  0.35807729     1.02200
O1394       O  0.14870877  0.64577530  0.37017468    -0.78300
O1395       O  0.08166841  0.63491596  0.37346374    -0.78400
C1396       C  0.07977226  0.60717878  0.37391076     1.02100
Cr1397     Cr  0.08930389  0.60707793  0.31303921     1.93700
Cr1398     Cr  0.15134972  0.63866798  0.29758063     1.93200
Cr1399     Cr  0.10980227  0.66076537  0.34877327     1.39100
O1400       O  0.11710609  0.63506746  0.31972682    -1.23500
O1401       O  0.87170191  0.94307724  0.31993205    -0.85800
O1402       O  0.88653632  0.91902703  0.37284096    -0.82800
C1403       C  0.89810673  0.90258387  0.39207620     0.97700
O1404       O  0.90320078  0.87594620  0.38531226    -0.82900
O1405       O  0.83979968  0.86229911  0.36732562    -0.85500
C1406       C  0.81563407  0.86289375  0.35017054     1.02200
O1407       O  0.81836540  0.86324629  0.32231295    -0.78300
O1408       O  0.83274407  0.91846665  0.29940944    -0.78500
C1409       C  0.84581156  0.94262181  0.30620677     1.02200
O1410       O  0.92119050  0.91104538  0.29382547    -0.85800
O1411       O  0.93964554  0.88777734  0.34494864    -0.82800
C1412       C  0.94670454  0.86415658  0.33152828     0.97700
O1413       O  0.92626315  0.84368075  0.33275435    -0.82900
O1414       O  0.86311038  0.82087757  0.32916779    -0.85500
C1415       C  0.86398389  0.81498123  0.30246840     1.02200
O1416       O  0.86752535  0.83621687  0.28506633    -0.78300
O1417       O  0.88221262  0.89438380  0.26621534    -0.78400
C1418       C  0.90787330  0.90833643  0.26940892     1.02100
Cr1419     Cr  0.90273251  0.91288226  0.33262049     1.93700
Cr1420     Cr  0.88323037  0.85289679  0.35180948     1.93200
Cr1421     Cr  0.85253080  0.87794675  0.29590174     1.39100
O1422       O  0.87863393  0.88191428  0.32642929    -1.23500
O1423       O  0.93204925  0.62921917  0.26153961    -0.85800
O1424       O  0.90192488  0.60797885  0.30877832    -0.82800
C1425       C  0.88000526  0.60611924  0.32710895     0.97700
O1426       O  0.85220195  0.61377876  0.32057968    -0.82900
O1427       O  0.84066517  0.66908878  0.29396295    -0.85500
C1428       C  0.84057823  0.68956075  0.27525836     1.02200
O1429       O  0.84147447  0.68206507  0.24865126    -0.78300
O1430       O  0.90668576  0.67104807  0.25341707    -0.78500
C1431       C  0.93082791  0.65713557  0.26320050     1.02200
O1432       O  0.89839302  0.58521122  0.22507337    -0.85800
O1433       O  0.86995260  0.56562747  0.27377830    -0.82800
C1434       C  0.84065996  0.56184244  0.27643326     0.97700
O1435       O  0.82132418  0.58356934  0.27608814    -0.82900
O1436       O  0.80366032  0.63690306  0.24972138    -0.85500
C1437       C  0.80650764  0.62996056  0.22290106     1.02200
O1438       O  0.83347087  0.63162276  0.21055597    -0.78300
O1439       O  0.90134954  0.62855615  0.20610634    -0.78400
C1440       C  0.90662275  0.60123214  0.20435123     1.02100
Cr1441     Cr  0.89794971  0.59931931  0.26651930     1.93700
Cr1442     Cr  0.83232916  0.62633854  0.28309329     1.93200
Cr1443     Cr  0.87037928  0.65107156  0.23180286     1.39100
O1444       O  0.86683048  0.62504048  0.26065641    -1.23500
C1445       C  0.84202447  0.77459262  0.26807826    -0.02300
C1446       C  0.85898662  0.78301208  0.29362151     0.07400
C1447       C  0.86645855  0.76055006  0.31415064    -0.02400
C1448       C  0.85533026  0.73153089  0.31031956    -0.02400
C1449       C  0.84203921  0.72218598  0.28339801     0.07500
C1450       C  0.83407795  0.74453328  0.26282858    -0.02600
Br1451     Br  0.80811467  0.73513796  0.22916971    -0.01100
Br1452     Br  0.82845964  0.80410929  0.24049276    -0.01200
Br1453     Br  0.85408564  0.70670115  0.34413497    -0.01200
Br1454     Br  0.89435031  0.76801571  0.34720380    -0.01200
C1455       C  0.83720190  0.97711922  0.26465662    -0.02300
C1456       C  0.83387159  0.97148594  0.29486808     0.07400
C1457       C  0.82928066  0.99574146  0.31411100    -0.02400
C1458       C  0.82070759  0.52358489  0.31069224    -0.02400
C1459       C  0.83057830  0.53097482  0.28225531     0.07500
C1460       C  0.83897838  0.50779986  0.26270902    -0.02600
Br1461     Br  0.85956415  0.51611483  0.22610497    -0.01100
Br1462     Br  0.83964424  0.94490614  0.23685334    -0.01200
Br1463     Br  0.80793555  0.55440531  0.33772070    -0.01200
Br1464     Br  0.82703122  0.98963942  0.35563508    -0.01200
C1465       C  0.01548767  0.68057199  0.27709272    -0.02300
C1466       C  0.01846848  0.67249805  0.30684888     0.07400
C1467       C  0.99072202  0.66864375  0.32311596    -0.02400
C1468       C  0.96084294  0.66943251  0.30914437    -0.02400
C1469       C  0.95816176  0.67201117  0.27843627     0.07500
C1470       C  0.98534939  0.68049590  0.26298579    -0.02600
Br1471     Br  0.98090828  0.69261791  0.22293736    -0.01100
Br1472     Br  0.05296579  0.68922567  0.25519461    -0.01200
Br1473     Br  0.92346890  0.66752217  0.33234181    -0.01200
Br1474     Br  0.99394416  0.65987897  0.36429391    -0.01200
C1475       C  0.98891669  0.83711554  0.29895686    -0.02300
C1476       C  0.97623082  0.86330493  0.31198524     0.07400
C1477       C  0.99006839  0.89026634  0.30321325    -0.02400
C1478       C  0.01015359  0.89137919  0.27867516    -0.02400
C1479       C  0.02531271  0.86552574  0.26744522     0.07500
C1480       C  0.01414261  0.83819617  0.27805634    -0.02600
Br1481     Br  0.03097006  0.80190985  0.26193459    -0.01100
Br1482     Br  0.97377308  0.79935564  0.31116621    -0.01200
Br1483     Br  0.01284183  0.92912415  0.25946230    -0.01200
Br1484     Br  0.98511938  0.92666698  0.32553642    -0.01200
C1485       C  0.11908973  0.78482822  0.30585634    -0.02300
C1486       C  0.14250222  0.79539765  0.28696637     0.07400
C1487       C  0.16502034  0.77503987  0.27565669    -0.02400
C1488       C  0.16234233  0.74437621  0.28048684    -0.02400
C1489       C  0.13822567  0.73347427  0.29856581     0.07500
C1490       C  0.11728120  0.75433357  0.31204636    -0.02600
Br1491     Br  0.08487567  0.74181105  0.33852492    -0.01100
Br1492     Br  0.08876028  0.81210308  0.32276015    -0.01200
Br1493     Br  0.19297104  0.71761989  0.26332600    -0.01200
Br1494     Br  0.20175221  0.78964882  0.25617507    -0.01200
C1495       C  0.16340336  0.98989586  0.30861170    -0.02300
C1496       C  0.16004342  0.98415768  0.27822731     0.07400
C1497       C  0.15887473  0.00851958  0.25914992    -0.02400
C1498       C  0.16880289  0.53610506  0.26590101    -0.02400
C1499       C  0.16394162  0.54393180  0.29552886     0.07500
C1500       C  0.16108297  0.52088947  0.31587267    -0.02600
Br1501     Br  0.14895973  0.52994388  0.35551254    -0.01100
Br1502     Br  0.16683068  0.95766176  0.33565875    -0.01200
Br1503     Br  0.17611702  0.56666105  0.23785948    -0.01200
Br1504     Br  0.14996297  0.00284981  0.21805034    -0.01200
C1505       C  0.25111451  0.60941650  0.37529639    -0.02300
C1506       C  0.27207439  0.63204501  0.36772860     0.07400
C1507       C  0.26044659  0.66130891  0.36780750    -0.02400
C1508       C  0.22792656  0.66740190  0.37135899    -0.02400
C1509       C  0.20638582  0.64426954  0.37393865     0.07500
C1510       C  0.21846504  0.61578288  0.37912350    -0.02600
Br1511     Br  0.18967129  0.58564526  0.39004021    -0.01100
Br1512     Br  0.26643289  0.56948171  0.37750650    -0.01200
Br1513     Br  0.21179985  0.70727137  0.36943114    -0.01200
Br1514     Br  0.28818197  0.69308126  0.36010472    -0.01200
C1515       C  0.26099155  0.91265252  0.20659777    -0.02300
C1516       C  0.28118320  0.88802396  0.20399160     0.07400
C1517       C  0.26791458  0.86036319  0.19743100    -0.02400
C1518       C  0.23473280  0.85665587  0.19845060    -0.02400
C1519       C  0.21511362  0.88032896  0.20726387     0.07500
C1520       C  0.22812388  0.90876359  0.20848874    -0.02600
Br1521     Br  0.20123425  0.94241523  0.21378903    -0.01100
Br1522     Br  0.27892926  0.95140916  0.21060331    -0.01200
Br1523     Br  0.21611613  0.81956315  0.18808674    -0.01200
Br1524     Br  0.29532331  0.82735588  0.18959720    -0.01200
C1525       C  0.33744642  0.75319933  0.31918212    -0.02300
C1526       C  0.33769124  0.72891772  0.29952243     0.07400
C1527       C  0.33567673  0.73470301  0.26914239    -0.02400
C1528       C  0.33788697  0.76386886  0.25882829    -0.02400
C1529       C  0.33755107  0.78791562  0.27861667     0.07500
C1530       C  0.33488539  0.78226050  0.30876936    -0.02600
Br1531     Br  0.33024193  0.81452423  0.33629164    -0.01100
Br1532     Br  0.34364615  0.74774393  0.36031645    -0.01200
Br1533     Br  0.34430678  0.77063904  0.21776928    -0.01200
Br1534     Br  0.33283143  0.70276378  0.24117273    -0.01200
C1535       C  0.34517919  0.98543481  0.30717579    -0.02300
C1536       C  0.35052148  0.97637101  0.27788465     0.07400
C1537       C  0.35431406  0.99883811  0.25651832    -0.02400
C1538       C  0.34904603  0.52840729  0.26566425    -0.02400
C1539       C  0.34597125  0.53779087  0.29517266     0.07500
C1540       C  0.34475702  0.51532656  0.31704384    -0.02600
Br1541     Br  0.34076245  0.52440502  0.35858430    -0.01100
Br1542     Br  0.33476306  0.95701417  0.33688593    -0.01200
Br1543     Br  0.34476937  0.55623043  0.23405513    -0.01200
Br1544     Br  0.36672406  0.98971326  0.21658864    -0.01200
C1545       C  0.51731810  0.58909582  0.30291666    -0.02300
C1546       C  0.51507748  0.59715702  0.27302434     0.07400
C1547       C  0.48441489  0.59945275  0.26089691    -0.02400
C1548       C  0.45724023  0.59552481  0.27872205    -0.02400
C1549       C  0.45972308  0.59438919  0.30974273     0.07500
C1550       C  0.49033522  0.58988650  0.32147520    -0.02600
Br1551     Br  0.49502657  0.58346374  0.36287078    -0.01100
Br1552     Br  0.55693600  0.57442442  0.31778044    -0.01200
Br1553     Br  0.41746610  0.58821212  0.26014690    -0.01200
Br1554     Br  0.47960560  0.60841390  0.22003815    -0.01200
C1555       C  0.72205132  0.63618581  0.19946082    -0.02300
C1556       C  0.71065892  0.61027258  0.21225817     0.07400
C1557       C  0.73254518  0.58736997  0.21770486    -0.02400
C1558       C  0.76525228  0.59201115  0.21370449    -0.02400
C1559       C  0.77685214  0.62027901  0.20764708     0.07500
C1560       C  0.75494100  0.64159076  0.19797917    -0.02600
Br1561     Br  0.77029047  0.67842701  0.18387760    -0.01100
Br1562     Br  0.69247544  0.66418158  0.18438461    -0.01200
Br1563     Br  0.79424187  0.55967373  0.21578738    -0.01200
Br1564     Br  0.71826849  0.55079294  0.23359141    -0.01200
C1565       C  0.49603361  0.91025100  0.31253658    -0.02300
C1566       C  0.52453504  0.91355208  0.29717596     0.07400
C1567       C  0.52314540  0.92786994  0.26994489    -0.02400
C1568       C  0.49416406  0.92983139  0.25431118    -0.03200
C1569       C  0.46593378  0.92156464  0.26796100     0.07500
C1570       C  0.46695593  0.91688627  0.29845842    -0.02600
Br1571     Br  0.42950538  0.92401369  0.32108419    -0.01100
Br1572     Br  0.49639156  0.89512828  0.35171627    -0.01200
Br1573     Br  0.49269385  0.94467820  0.21509995    -0.01200
Br1574     Br  0.56019154  0.94770824  0.25675479    -0.01200
C1575       C  0.73461443  0.89359559  0.36640807    -0.02300
C1576       C  0.71583284  0.86932640  0.35854237     0.07400
C1577       C  0.73055824  0.84123755  0.35678510    -0.02400
C1578       C  0.76380858  0.83831013  0.35716180    -0.02400
C1579       C  0.78273131  0.86327134  0.36138469     0.07500
C1580       C  0.76788779  0.89044650  0.36796420    -0.02600
Br1581     Br  0.79343445  0.92422749  0.37499352    -0.01100
Br1582     Br  0.71543813  0.93179581  0.37157588    -0.01200
Br1583     Br  0.78357772  0.80073857  0.34840692    -0.01200
Br1584     Br  0.70515523  0.80680695  0.35223216    -0.01200
C1585       C  0.64522872  0.75553771  0.32245336    -0.02300
C1586       C  0.65699590  0.77513244  0.30161574     0.07400
C1587       C  0.67783457  0.76363423  0.28030677    -0.02400
C1588       C  0.67599807  0.73358820  0.27252441    -0.02400
C1589       C  0.65668652  0.71493933  0.28889833     0.07500
C1590       C  0.64543891  0.72526058  0.31628146    -0.02600
Br1591     Br  0.63086374  0.69893521  0.34584240    -0.01100
Br1592     Br  0.63232127  0.76966000  0.36056301    -0.01200
Br1593     Br  0.70172460  0.71760848  0.24162934    -0.01200
Br1594     Br  0.71285340  0.78686766  0.26728627    -0.01200
C1595       C  0.64703720  0.98696944  0.31341164    -0.02300
C1596       C  0.64573403  0.96512690  0.29096800     0.07400
C1597       C  0.64431937  0.97410243  0.26142271    -0.02400
C1598       C  0.64244565  0.50408466  0.25686093    -0.02400
C1599       C  0.64078761  0.52574055  0.27929286     0.07500
C1600       C  0.64290530  0.51714909  0.30876542    -0.02600
Br1601     Br  0.64033334  0.54637437  0.33972778    -0.01100
Br1602     Br  0.64971936  0.97626913  0.35417928    -0.01200
Br1603     Br  0.64141268  0.51556166  0.21621020    -0.01200
Br1604     Br  0.64354327  0.94537763  0.22987417    -0.01200
C1605       C  0.04729024  0.56864282  0.44181632    -0.02300
C1606       C  0.01797064  0.55691967  0.43114368     0.07400
C1607       C  0.01024891  0.56343109  0.40100222    -0.02400
C1608       C  0.03077345  0.57922223  0.38304906    -0.02400
C1609       C  0.05821695  0.59202876  0.39455055     0.07500
C1610       C  0.06579506  0.58765003  0.42423593    -0.02600
Br1611     Br  0.10380649  0.60543469  0.43959477    -0.01100
Br1612     Br  0.06748223  0.55459568  0.47678911    -0.01200
Br1613     Br  0.02243363  0.58063021  0.34115029    -0.01200
Br1614     Br  0.97521057  0.54604671  0.37986347    -0.01200
C1615       C  0.07818765  0.92012993  0.36122476    -0.02300
C1616       C  0.07973540  0.93219777  0.33311118     0.07400
C1617       C  0.06589910  0.96015123  0.32758316    -0.02400
C1618       C  0.04816085  0.97451696  0.34905144    -0.02400
C1619       C  0.04532738  0.96183006  0.37663371     0.07500
C1620       C  0.06161404  0.93547402  0.38326171    -0.02600
Br1621     Br  0.06289355  0.92158554  0.42280273    -0.01100
Br1622     Br  0.09704403  0.88223945  0.36917961    -0.01200
Br1623     Br  0.02637666  0.01097671  0.34005886    -0.01200
Br1624     Br  0.07098419  0.97983973  0.29086370    -0.01200
C1625       C  0.89304042  0.93861605  0.43422351    -0.02300
C1626       C  0.91022756  0.91584957  0.41992101     0.07400
C1627       C  0.94120305  0.90935688  0.43031852    -0.02400
C1628       C  0.95615150  0.92936997  0.44966855    -0.02400
C1629       C  0.94208512  0.95718276  0.45479855     0.07500
C1630       C  0.90889968  0.95850830  0.45290844    -0.02600
Br1631     Br  0.88876905  0.47540954  0.48832933    -0.01100
Br1632     Br  0.84829917  0.94288386  0.42838131    -0.01200
Br1633     Br  0.99603181  0.91979580  0.46794650    -0.01200
Br1634     Br  0.96533386  0.87617199  0.41553031    -0.01200
C1635       C  0.88240249  0.58555959  0.40785508    -0.02300
C1636       C  0.89525889  0.55690199  0.40588239     0.07400
C1637       C  0.89880847  0.54361739  0.37796792    -0.02400
C1638       C  0.89791438  0.56128879  0.35309718    -0.02400
C1639       C  0.88593756  0.59041085  0.35482940     0.07500
C1640       C  0.87612849  0.60177449  0.38225517    -0.02600
Br1641     Br  0.85678348  0.64014131  0.38534665    -0.01100
Br1642     Br  0.87440473  0.60228215  0.44602845    -0.01200
Br1643     Br  0.91659242  0.54561284  0.31768123    -0.01200
Br1644     Br  0.90783650  0.50190369  0.37289677    -0.01200
C1645       C  0.57488278  0.82152015  0.41448221    -0.02300
C1646       C  0.57229930  0.81803647  0.38368122     0.07400
C1647       C  0.55886634  0.79188889  0.37256803    -0.02400
C1648       C  0.54912711  0.76951853  0.39155827    -0.02400
C1649       C  0.54731369  0.77423330  0.42301366     0.07500
C1650       C  0.56121538  0.80072431  0.43383173    -0.02600
Br1651     Br  0.55943073  0.81118358  0.47455828    -0.01100
Br1652     Br  0.59445242  0.85647343  0.43044909    -0.01200
Br1653     Br  0.53481930  0.73435301  0.37095719    -0.01200
Br1654     Br  0.55321842  0.78575706  0.33032631    -0.01200
C1655       C  0.43769631  0.67490884  0.45850873    -0.02300
C1656       C  0.43625215  0.70457529  0.44774056     0.07400
C1657       C  0.41026683  0.71040106  0.42834164    -0.02400
C1658       C  0.38584786  0.69022219  0.42786317    -0.02400
C1659       C  0.39588886  0.66124921  0.42355792     0.07500
C1660       C  0.42087978  0.65254081  0.44247415    -0.02600
Br1661     Br  0.43293742  0.61180001  0.44502997    -0.01100
Br1662     Br  0.46577781  0.66369991  0.48999388    -0.01200
Br1663     Br  0.34330973  0.70191299  0.41927332    -0.01200
Br1664     Br  0.41811186  0.72145564  0.38824039    -0.01200
C1665       C  0.44174059  0.80348431  0.35920612    -0.02300
C1666       C  0.43595200  0.81297802  0.38811972     0.07400
C1667       C  0.41633247  0.83765216  0.39329226    -0.02400
C1668       C  0.40303643  0.85325230  0.36946300    -0.02400
C1669       C  0.41004582  0.84429951  0.34042473     0.07500
C1670       C  0.42922376  0.81896541  0.33555596    -0.02600
Br1671     Br  0.43818945  0.80366830  0.29653269    -0.01100
Br1672     Br  0.46665711  0.76863352  0.35140118    -0.01200
Br1673     Br  0.37639788  0.88716783  0.37677508    -0.01200
Br1674     Br  0.40858312  0.84997079  0.43303751    -0.01200
C1675       C  0.59132561  0.63587000  0.37573659    -0.02300
C1676       C  0.57748574  0.64101673  0.34792362     0.07400
C1677       C  0.54621321  0.65288332  0.34653192    -0.02400
C1678       C  0.52895674  0.65798322  0.37203977    -0.02400
C1679       C  0.54468589  0.65771547  0.39938883     0.07500
C1680       C  0.57534482  0.64539336  0.40128724    -0.02600
Br1681     Br  0.59571652  0.64351790  0.43906368    -0.01100
Br1682     Br  0.63402239  0.62081215  0.37909838    -0.01200
Br1683     Br  0.48457731  0.66903949  0.36790562    -0.01200
Br1684     Br  0.52707979  0.66810886  0.31111041    -0.01200
C1685       C  0.08668235  0.55059251  0.20420426    -0.02300
C1686       C  0.09177695  0.56237340  0.17619779     0.07400
C1687       C  0.10458901  0.59066752  0.17376778    -0.02400
C1688       C  0.10977808  0.60813989  0.19901233    -0.02400
C1689       C  0.09958594  0.59811270  0.22646746     0.07500
C1690       C  0.08766101  0.56920945  0.22879494    -0.02600
Br1691     Br  0.07002143  0.55476025  0.26477877    -0.01100
Br1692     Br  0.07562985  0.50955396  0.20933381    -0.01200
Br1693     Br  0.12835189  0.64648681  0.19559706    -0.01200
Br1694     Br  0.11429950  0.60506483  0.13547262    -0.01200
C1695       C  0.08740767  0.96270334  0.12522244    -0.02300
C1696       C  0.05446879  0.95989842  0.12222579     0.07400
C1697       C  0.04239203  0.93135901  0.12561665    -0.02400
C1698       C  0.05802678  0.91183686  0.14482087    -0.02400
C1699       C  0.08757657  0.92004039  0.15703050     0.07500
C1700       C  0.10385944  0.94345567  0.14399459    -0.02600
Br1701     Br  0.14808711  0.94917777  0.15179946    -0.01100
Br1702     Br  0.10981623  0.98933492  0.10040739    -0.01200
Br1703     Br  0.03655109  0.87685215  0.15699382    -0.01200
Br1704     Br  0.00373830  0.92042230  0.10607881    -0.01200
C1705       C  0.97904146  0.56747772  0.17273786    -0.02300
C1706       C  0.96972662  0.55138151  0.14709520     0.07400
C1707       C  0.93642047  0.55202036  0.14088865    -0.02400
C1708       C  0.91528335  0.56935318  0.15860676    -0.02400
C1709       C  0.92704685  0.58827662  0.18078887     0.07500
C1710       C  0.95972516  0.58927701  0.18509835    -0.02600
Br1711     Br  0.97835591  0.61664484  0.21245834    -0.01100
Br1712     Br  0.00910018  0.55221187  0.20070704    -0.01200
Br1713     Br  0.87008639  0.56657407  0.15367847    -0.01200
Br1714     Br  0.91792234  0.52532674  0.11272269    -0.01200
C1715       C  0.92568626  0.91249115  0.21713409    -0.02300
C1716       C  0.92190078  0.92488218  0.24525982     0.07400
C1717       C  0.93193079  0.95418467  0.25091847    -0.02400
C1718       C  0.94803615  0.96969923  0.22954008    -0.02400
C1719       C  0.95253597  0.95705205  0.20177737     0.07500
C1720       C  0.94023497  0.92897744  0.19518821    -0.02600
Br1721     Br  0.94156078  0.91390951  0.15577047    -0.01100
Br1722     Br  0.91247629  0.87271781  0.20893399    -0.01200
Br1723     Br  0.96580236  0.00771495  0.23892417    -0.01200
Br1724     Br  0.92327166  0.97448223  0.28745549    -0.01200
C1725       C  0.59458246  0.68897745  0.15593956    -0.02300
C1726       C  0.57951539  0.66322854  0.16544117     0.07400
C1727       C  0.55396338  0.65243477  0.14830769    -0.02400
C1728       C  0.53958432  0.67090135  0.12692574    -0.02400
C1729       C  0.55133667  0.69964460  0.12288129     0.07500
C1730       C  0.58280355  0.70378828  0.13136303    -0.02600
Br1731     Br  0.61157097  0.72037693  0.10374475    -0.01100
Br1732     Br  0.62789758  0.70718745  0.17791064    -0.01200
Br1733     Br  0.50186415  0.65876811  0.10645288    -0.01200
Br1734     Br  0.53591032  0.61484672  0.15691548    -0.01200
C1735       C  0.45952969  0.83918897  0.17342285    -0.02300
C1736       C  0.42720005  0.84231668  0.16780426     0.07400
C1737       C  0.41375677  0.82483993  0.14521751    -0.02400
C1738       C  0.43285151  0.80433681  0.12892669    -0.02400
C1739       C  0.46497472  0.79912621  0.13729794     0.07500
C1740       C  0.47569549  0.81451520  0.16302011    -0.02600
Br1741     Br  0.50695324  0.79893154  0.19059028    -0.01100
Br1742     Br  0.48239474  0.86710292  0.19701718    -0.01200
Br1743     Br  0.41271813  0.77992890  0.09979162    -0.01200
Br1744     Br  0.36920683  0.82912326  0.13716633    -0.01200
C1745       C  0.61645638  0.81015006  0.16681634    -0.02300
C1746       C  0.58882123  0.82096108  0.15316276     0.07400
C1747       C  0.57822599  0.84935321  0.16208232    -0.02400
C1748       C  0.58671219  0.86029713  0.19000123    -0.02400
C1749       C  0.60806752  0.84441205  0.20768727     0.07500
C1750       C  0.62469770  0.82051137  0.19490289    -0.02600
Br1751     Br  0.65820643  0.80123735  0.21550109    -0.01100
Br1752     Br  0.64576455  0.78559154  0.14510879    -0.01200
Br1753     Br  0.56795617  0.89609078  0.20408242    -0.01200
Br1754     Br  0.55845273  0.87577120  0.13446731    -0.01200
C1755       C  0.42542307  0.67866265  0.19265701    -0.02300
C1756       C  0.44826130  0.69981663  0.19991916     0.07400
C1757       C  0.45367810  0.70788321  0.22906958    -0.02400
C1758       C  0.43632929  0.69492205  0.25133118    -0.02400
C1759       C  0.41495588  0.67171521  0.24464945     0.07500
C1760       C  0.40892811  0.66422120  0.21495906    -0.02600
Br1761     Br  0.37860872  0.63448617  0.20423493    -0.01100
Br1762     Br  0.41688720  0.67014928  0.15198498    -0.01200
Br1763     Br  0.44044707  0.71190605  0.29030165    -0.01200
Br1764     Br  0.48532698  0.73696463  0.23812763    -0.01200
C1765       C  0.53632237  0.72528510  0.62326337     0.29600
C1766       C  0.49129832  0.76947229  0.62714301     0.29600
C1767       C  0.54899141  0.75716162  0.62788877    -0.06600
C1768       C  0.51475089  0.72930595  0.59572305    -0.07400
C1769       C  0.51193504  0.72278140  0.64788915    -0.07300
C1770       C  0.52607213  0.77903106  0.62722856    -0.06600
C1771       C  0.49104264  0.75195752  0.59798253    -0.07400
C1772       C  0.48950941  0.74503220  0.64951863    -0.07300
C1773       C  0.54078548  0.80567270  0.62895443    -0.32700
N1774       N  0.57180931  0.80163651  0.63566786     0.13800
C1775       C  0.57669604  0.77179142  0.63548190    -0.32700
H1776       H  0.59743058  0.76136472  0.64446602     0.15800
C1777       C  0.48515889  0.76141120  0.56985989    -0.31700
N1778       N  0.50315735  0.74548666  0.55104753     0.12600
C1779       C  0.52183872  0.72659717  0.56622737    -0.31600
C1780       C  0.46606027  0.73614965  0.66807681    -0.31900
N1781       N  0.47395350  0.70927168  0.67818827     0.13100
H1782       H  0.44442815  0.74796535  0.67337340     0.15700
C1783       C  0.50199154  0.70088900  0.66650907    -0.31900
H1784       H  0.51343006  0.68007419  0.67096597     0.15700
H1785       H  0.54030971  0.71299890  0.55670112     0.15700
H1786       H  0.52813295  0.82622682  0.62883456     0.15800
H1787       H  0.47038405  0.77997715  0.56362796     0.15700
C1788       C  0.99675377  0.52891563  0.63304480     0.29600
C1789       C  0.03521731  0.98211291  0.62482003     0.29600
C1790       C  0.99136498  0.00252425  0.65450423    -0.06600
C1791       C  0.99676911  0.51533523  0.60195269    -0.07400
C1792       C  0.03250526  0.53561005  0.63582683    -0.07300
C1793       C  0.01282247  0.97957328  0.65088344    -0.06600
C1794       C  0.01201851  0.98870112  0.59957930    -0.07400
C1795       C  0.05341569  0.51176957  0.63309175    -0.07300
C1796       C  0.00380255  0.95756784  0.66966487    -0.32700
N1797       N  0.97663389  0.96617581  0.68289514     0.13800
C1798       C  0.96864118  0.99333010  0.67347180    -0.32700
H1799       H  0.94736689  0.00526071  0.67968858     0.15800
C1800       C  0.01531170  0.98435477  0.57007989    -0.31700
N1801       N  0.99740342  0.00466427  0.55633695     0.12600
C1802       C  0.98943551  0.52561549  0.57436571    -0.31600
C1803       C  0.08180906  0.52110265  0.64514490    -0.31900
N1804       N  0.07904197  0.54979817  0.65329677     0.13100
H1805       H  0.10134293  0.50714980  0.65187367     0.15700
C1806       C  0.04984762  0.55932780  0.64527636    -0.31900
H1807       H  0.04028606  0.58077298  0.65116167     0.15700
H1808       H  0.97572747  0.54510276  0.56903037     0.15700
H1809       H  0.01521022  0.93649204  0.67299992     0.15800
H1810       H  0.03144097  0.96913717  0.55929286     0.15700
C1811       C  0.46786884  0.72470575  0.94652141     0.29600
C1812       C  0.52359876  0.75588899  0.93883352     0.29600
C1813       C  0.46583848  0.75202504  0.92720557    -0.06600
C1814       C  0.48019615  0.73900609  0.47653389    -0.07400
C1815       C  0.49745592  0.70728062  0.93640580    -0.07300
C1816       C  0.49371687  0.76660845  0.92269580    -0.06600
C1817       C  0.50903997  0.75518287  0.47295472    -0.07400
C1818       C  0.52533637  0.72251979  0.93413967    -0.07300
C1819       C  0.48603793  0.79358555  0.91054382    -0.32700
N1820       N  0.45438251  0.79582756  0.90739203     0.13800
C1821       C  0.44185274  0.77214736  0.92040602    -0.32700
H1822       H  0.41668033  0.76899354  0.92286558     0.15800
C1823       C  0.52154377  0.75698650  0.50126334    -0.31700
N1824       N  0.50005005  0.74641131  0.52043093     0.12600
C1825       C  0.47494121  0.73546225  0.50574092    -0.31600
C1826       C  0.54897477  0.70220630  0.92772027    -0.31900
N1827       N  0.53560920  0.67555453  0.92268096     0.13100
H1828       H  0.57305575  0.70763361  0.92207581     0.15700
C1829       C  0.50478237  0.67811830  0.93026121    -0.31900
H1830       H  0.48820805  0.66031409  0.92801330     0.15700
H1831       H  0.45554732  0.72397612  0.51563818     0.15700
H1832       H  0.50246283  0.80985862  0.90288503     0.15800
H1833       H  0.54503856  0.76379282  0.50763320     0.15700
C1834       C  0.96460112  0.97753709  0.95299748     0.29600
C1835       C  0.99987420  0.52821110  0.94769703     0.29600
C1836       C  0.94535988  0.50684401  0.94815687    -0.06600
C1837       C  0.98174025  0.99265394  0.48104275    -0.07400
C1838       C  0.98832174  0.97688618  0.92785477    -0.07300
C1839       C  0.96343964  0.53223220  0.94592622    -0.06600
C1840       C  0.00245674  0.51720584  0.47690724    -0.07400
C1841       C  0.00725417  0.50108097  0.92856788    -0.07300
C1842       C  0.94375669  0.55414384  0.93551989    -0.32700
N1843       N  0.91604216  0.54200345  0.92679368     0.13800
C1844       C  0.91648384  0.51347171  0.93513216    -0.32700
H1845       H  0.89876582  0.49781413  0.92834280     0.15800
C1846       C  0.00736389  0.52772539  0.50524694    -0.31700
N1847       N  0.99750393  0.50722841  0.52433309     0.12600
C1848       C  0.97807640  0.98580401  0.50987585    -0.31600
C1849       C  0.03208361  0.99437717  0.90805992    -0.31900
N1850       N  0.02824788  0.96667620  0.89806308     0.13100
H1851       H  0.05178366  0.00831504  0.90265623     0.15700
C1852       C  0.00146380  0.95575833  0.90939645    -0.31900
H1853       H  0.99299438  0.93390710  0.90463475     0.15700
H1854       H  0.96351784  0.96861511  0.51868799     0.15700
H1855       H  0.95142163  0.57574260  0.92893612     0.15800
H1856       H  0.01597264  0.54912077  0.51181975     0.15700
O1857       O  0.56702933  0.87196765  0.78298654    -0.85800
O1858       O  0.60727905  0.83198861  0.75407670    -0.82800
C1859       C  0.61940540  0.84971122  0.73652946     0.97700
O1860       O  0.63596261  0.87040785  0.74642681    -0.82900
O1861       O  0.66347564  0.90954023  0.78546474    -0.85500
C1862       C  0.64639444  0.92957829  0.79712537     1.02200
O1863       O  0.62558086  0.92361002  0.81560989    -0.78300
O1864       O  0.57118984  0.89486872  0.82589550    -0.78500
C1865       C  0.55702486  0.89110638  0.80112970     1.02200
O1866       O  0.57266837  0.83922764  0.83469999    -0.85800
O1867       O  0.62269256  0.80713854  0.80876997    -0.82800
C1868       C  0.64884397  0.80153332  0.79649112     0.97700
O1869       O  0.66176935  0.82079620  0.78051574    -0.82900
O1870       O  0.68767634  0.85968592  0.81759627    -0.85500
C1871       C  0.68756193  0.87054197  0.84294898     1.02200
O1872       O  0.66361890  0.88488634  0.85242570    -0.78300
O1873       O  0.61047934  0.85268657  0.86308176    -0.78400
C1874       C  0.58666505  0.83688630  0.85890709     1.02100
Cr1875     Cr  0.59470536  0.83943390  0.79586341     1.93700
Cr1876     Cr  0.65936073  0.86532900  0.78415060     1.93200
Cr1877     Cr  0.61817198  0.88723272  0.83700879     1.39100
O1878       O  0.62447869  0.86463081  0.80555569    -1.23500
O1879       O  0.55542644  0.62894957  0.76598288    -0.85800
O1880       O  0.59627852  0.65491621  0.80334232    -0.82800
C1881       C  0.59856268  0.63423594  0.82130667     0.97700
O1882       O  0.61720515  0.61272674  0.81578237    -0.82900
O1883       O  0.65456708  0.57243383  0.78184299    -0.85500
C1884       C  0.63800888  0.55239351  0.77078817     1.02200
O1885       O  0.61594431  0.55864534  0.75364131    -0.78300
O1886       O  0.56388347  0.58869305  0.73982202    -0.78500
C1887       C  0.54715155  0.60354202  0.75816496     1.02200
O1888       O  0.58394096  0.65968491  0.71831604    -0.85800
O1889       O  0.63030188  0.67917294  0.75581394    -0.82800
C1890       C  0.64914951  0.68120820  0.77723669     0.97700
O1891       O  0.65501675  0.65891914  0.79259435    -0.82900
O1892       O  0.68147915  0.61963823  0.75240821    -0.85500
C1893       C  0.68218967  0.60726754  0.72733162     1.02200
O1894       O  0.65791031  0.59398988  0.71653285    -0.78300
O1895       O  0.60341034  0.62118908  0.69571364    -0.78400
C1896       C  0.59106695  0.64645343  0.69505301     1.02100
Cr1897     Cr  0.59361895  0.65266568  0.76009070     1.93700
Cr1898     Cr  0.64906155  0.61613482  0.78326638     1.93200
Cr1899     Cr  0.61092041  0.59340783  0.72878491     1.39100
O1900       O  0.61793537  0.62053269  0.75679048    -1.23500
O1901       O  0.44044969  0.87648055  0.73942897    -0.85800
O1902       O  0.41602425  0.85925588  0.78919043    -0.82800
C1903       C  0.39755916  0.85551907  0.81000455     0.97700
O1904       O  0.36860429  0.86220154  0.80726046    -0.82900
O1905       O  0.35669944  0.91940978  0.78335403    -0.85500
C1906       C  0.35445795  0.94040680  0.76535095     1.02200
O1907       O  0.35280810  0.93355200  0.73870649    -0.78300
O1908       O  0.41704544  0.91960132  0.73978902    -0.78500
C1909       C  0.44075861  0.90362807  0.74641575     1.02200
O1910       O  0.39806439  0.83476381  0.70828148    -0.85800
O1911       O  0.37710644  0.81620950  0.76123099    -0.82800
C1912       C  0.34769988  0.81394518  0.76519078     0.97700
O1913       O  0.32963146  0.83642072  0.76447142    -0.82900
O1914       O  0.31370287  0.89084086  0.74127801    -0.85500
C1915       C  0.31408419  0.88695482  0.71361612     1.02200
O1916       O  0.33996454  0.88659324  0.69948094    -0.78300
O1917       O  0.40623119  0.87823004  0.69092449    -0.78400
C1918       C  0.40748289  0.85050352  0.68780063     1.02100
Cr1919     Cr  0.40565744  0.84846998  0.74904129     1.93700
Cr1920     Cr  0.34451573  0.87769642  0.77217720     1.93200
Cr1921     Cr  0.37895040  0.90245347  0.71891604     1.39100
O1922       O  0.37584490  0.87547413  0.74661624    -1.23500
O1923       O  0.43377804  0.62615648  0.84148633    -0.85800
O1924       O  0.41782060  0.65022693  0.79120561    -0.82800
C1925       C  0.40273016  0.65342605  0.76781392     0.97700
O1926       O  0.37379291  0.64622080  0.76606421    -0.82900
O1927       O  0.35400993  0.58949386  0.78540449    -0.85500
C1928       C  0.34962006  0.56815494  0.80247249     1.02200
O1929       O  0.34396607  0.57447685  0.82852150    -0.78300
O1930       O  0.40988203  0.58508682  0.83189684    -0.78500
C1931       C  0.43435705  0.60086917  0.82921391     1.02200
O1932       O  0.38642399  0.66595554  0.87039148    -0.85800
O1933       O  0.37595167  0.69215217  0.81674149    -0.82800
C1934       C  0.34823664  0.69583554  0.80661337     0.97700
O1935       O  0.32997037  0.67411213  0.80295640    -0.82900
O1936       O  0.30745092  0.62110342  0.82440568    -0.85500
C1937       C  0.30555490  0.62214413  0.85244308     1.02200
O1938       O  0.33004393  0.61838411  0.86863898    -0.78300
O1939       O  0.39510006  0.62166774  0.88510858    -0.78400
C1940       C  0.39198349  0.64872233  0.89124498     1.02100
Cr1941     Cr  0.40122484  0.65697657  0.83021652     1.93700
Cr1942     Cr  0.34327030  0.63193762  0.79689973     1.93200
Cr1943     Cr  0.37033730  0.60193111  0.85182355     1.39100
O1944       O  0.37094924  0.63116045  0.82616408    -1.23500
O1945       O  0.06107855  0.88762738  0.73302299    -0.85800
O1946       O  0.08185762  0.91082253  0.78421374    -0.82800
C1947       C  0.09844551  0.91217985  0.80702628     0.97700
O1948       O  0.12707647  0.90390434  0.80749990    -0.82900
O1949       O  0.14385985  0.84669429  0.79047140    -0.85500
C1950       C  0.14485534  0.82346371  0.77502299     1.02200
O1951       O  0.14347563  0.82554314  0.74769015    -0.78300
O1952       O  0.07913825  0.84506087  0.74531806    -0.78500
C1953       C  0.05652583  0.86387332  0.74640722     1.02200
O1954       O  0.10893810  0.92200327  0.70324246    -0.85800
O1955       O  0.12397368  0.94856515  0.75571152    -0.82800
C1956       C  0.15211056  0.95116062  0.76445130     0.97700
O1957       O  0.16942482  0.92849047  0.76809977    -0.82900
O1958       O  0.18711158  0.87254086  0.74703880    -0.85500
C1959       C  0.18662523  0.87112922  0.71909265     1.02200
O1960       O  0.16111847  0.86627137  0.70482633    -0.78300
O1961       O  0.09739606  0.87702839  0.69117974    -0.78400
C1962       C  0.10048695  0.90367908  0.68399501     1.02100
Cr1963     Cr  0.09624202  0.91515506  0.74417725     1.93700
Cr1964     Cr  0.15448882  0.88727526  0.77579775     1.93200
Cr1965     Cr  0.12030274  0.85572566  0.72410319     1.39100
O1966       O  0.12447469  0.88663420  0.74816463    -1.23500
O1967       O  0.05215694  0.63451917  0.82221163    -0.85800
O1968       O  0.08342691  0.61720286  0.77479035    -0.82800
C1969       C  0.10536559  0.61480219  0.75663816     0.97700
O1970       O  0.13299878  0.62242980  0.76338352    -0.82900
O1971       O  0.14083674  0.67921258  0.79028864    -0.85500
C1972       C  0.13971792  0.69969010  0.80954497     1.02200
O1973       O  0.13694447  0.69279493  0.83606059    -0.78300
O1974       O  0.07329110  0.67752753  0.83094115    -0.78500
C1975       C  0.05045440  0.66221421  0.82121660     1.02200
O1976       O  0.08917885  0.59237239  0.85702461    -0.85800
O1977       O  0.11940175  0.57464841  0.80755894    -0.82800
C1978       C  0.14907190  0.57212602  0.80601815     0.97700
O1979       O  0.16657221  0.59476629  0.80808217    -0.82900
O1980       O  0.17906901  0.65014340  0.83386956    -0.85500
C1981       C  0.17717901  0.64443120  0.86081608     1.02200
O1982       O  0.15021743  0.64357224  0.87332214    -0.78300
O1983       O  0.08232010  0.63524245  0.87751657    -0.78400
C1984       C  0.07852181  0.60768847  0.87784319     1.02100
Cr1985     Cr  0.08857185  0.60696683  0.81623131     1.93700
Cr1986     Cr  0.15185497  0.63689650  0.80083602     1.93200
Cr1987     Cr  0.11128425  0.65997153  0.85235498     1.39100
O1988       O  0.11744365  0.63413827  0.82310592    -1.23500
O1989       O  0.87253149  0.94093617  0.82337118    -0.85800
O1990       O  0.88960872  0.91411346  0.87469617    -0.82800
C1991       C  0.90165697  0.89662682  0.89277002     0.97700
O1992       O  0.90643786  0.87039974  0.88452759    -0.82900
O1993       O  0.84153825  0.85996793  0.86891277    -0.85500
C1994       C  0.81672494  0.86169658  0.85261747     1.02200
O1995       O  0.81831327  0.86278337  0.82463797    -0.78300
O1996       O  0.83357862  0.91742228  0.80145167    -0.78500
C1997       C  0.84656249  0.94120118  0.80958880     1.02200
O1998       O  0.92053148  0.90878943  0.79428958    -0.85800
O1999       O  0.94061771  0.88277498  0.84296594    -0.82800
C2000       C  0.94638498  0.85942002  0.82845172     0.97700
O2001       O  0.92535505  0.83944510  0.82989680    -0.82900
O2002       O  0.86062743  0.81923984  0.82909068    -0.85500
C2003       C  0.86200321  0.81341374  0.80251673     1.02200
O2004       O  0.86579898  0.83470122  0.78533246    -0.78300
O2005       O  0.88158630  0.89195498  0.76670385    -0.78400
C2006       C  0.90757522  0.90536247  0.76982191     1.02100
Cr2007     Cr  0.90376827  0.90947835  0.83356742     1.93700
Cr2008     Cr  0.88370316  0.84946750  0.85131556     1.93200
Cr2009     Cr  0.85202966  0.87650865  0.79706743     1.39100
O2010       O  0.87891088  0.87930904  0.82703516    -1.23500
O2011       O  0.93569768  0.62890524  0.75848872    -0.85800
O2012       O  0.90584185  0.60494897  0.80471871    -0.82800
C2013       C  0.88394548  0.60298272  0.82307903     0.97700
O2014       O  0.85630796  0.61144151  0.81691690    -0.82900
O2015       O  0.84391391  0.66736734  0.79200098    -0.85500
C2016       C  0.84310315  0.68824471  0.77377987     1.02200
O2017       O  0.84435501  0.68150542  0.74707066    -0.78300
O2018       O  0.90993236  0.67079631  0.75177140    -0.78500
C2019       C  0.93425764  0.65678032  0.76123463     1.02200
O2020       O  0.90171190  0.58623940  0.72012363    -0.85800
O2021       O  0.87375362  0.56441902  0.76821267    -0.82800
C2022       C  0.84456424  0.56060339  0.77182506     0.97700
O2023       O  0.82515570  0.58228344  0.77219009    -0.82900
O2024       O  0.80665699  0.63646115  0.74738347    -0.85500
C2025       C  0.80902299  0.63074572  0.72026122     1.02200
O2026       O  0.83596335  0.63270104  0.70771618    -0.78300
O2027       O  0.90439980  0.63026625  0.70279465    -0.78400
C2028       C  0.90986393  0.60308448  0.70005863     1.02100
Cr2029     Cr  0.90156752  0.59853231  0.76209949     1.93700
Cr2030     Cr  0.83594099  0.62492051  0.78006253     1.93200
Cr2031     Cr  0.87339282  0.65143328  0.72940092     1.39100
O2032       O  0.87024059  0.62439907  0.75736736    -1.23500
C2033       C  0.84118405  0.77312638  0.76786347    -0.02300
C2034       C  0.85758100  0.78157481  0.79363941     0.07400
C2035       C  0.86532636  0.75919302  0.81419401    -0.02400
C2036       C  0.85555402  0.72987742  0.80973847    -0.02400
C2037       C  0.84309800  0.72061626  0.78247516     0.07500
C2038       C  0.83456641  0.74296056  0.76206133    -0.02600
Br2039     Br  0.81013649  0.73331187  0.72747122    -0.01100
Br2040     Br  0.82620447  0.80275981  0.74095662    -0.01200
Br2041     Br  0.85570620  0.70408643  0.84291283    -0.01200
Br2042     Br  0.89144893  0.76728111  0.84839302    -0.01200
C2043       C  0.83791057  0.97739920  0.76946576    -0.02300
C2044       C  0.83419501  0.97042691  0.79932185     0.07400
C2045       C  0.82684602  0.99363654  0.81913583    -0.02400
C2046       C  0.82669933  0.52315752  0.80778329    -0.02400
C2047       C  0.83483055  0.52986885  0.77865476     0.07500
C2048       C  0.84240611  0.50623496  0.75938356    -0.02600
Br2049     Br  0.86057411  0.51355742  0.72150407    -0.01100
Br2050     Br  0.84273766  0.94657464  0.74041498    -0.01200
Br2051     Br  0.81381227  0.55429432  0.83435262    -0.01200
Br2052     Br  0.82409279  0.98628189  0.86030045    -0.01200
C2053       C  0.01876259  0.68115097  0.77790639    -0.02300
C2054       C  0.02065143  0.67504868  0.80819858     0.07400
C2055       C  0.99212323  0.67272405  0.82361150    -0.02400
C2056       C  0.96293837  0.67032567  0.80834563    -0.02400
C2057       C  0.96145668  0.67152568  0.77738513     0.07500
C2058       C  0.98912609  0.68042848  0.76281295    -0.02600
Br2059     Br  0.98592004  0.69348028  0.72300378    -0.01100
Br2060     Br  0.05708407  0.68910802  0.75702327    -0.01200
Br2061     Br  0.92503448  0.66528650  0.83019958    -0.01200
Br2062     Br  0.99356123  0.67241705  0.86581705    -0.01200
C2063       C  0.98692759  0.83244320  0.79334123    -0.02300
C2064       C  0.97566650  0.85827535  0.80830895     0.07400
C2065       C  0.99110986  0.88503095  0.80123863    -0.02400
C2066       C  0.01212325  0.88657910  0.77739755    -0.02400
C2067       C  0.02676551  0.86085869  0.76543118     0.07500
C2068       C  0.01351777  0.83352811  0.77377489    -0.02600
Br2069     Br  0.02952098  0.79764038  0.75614844    -0.01100
Br2070     Br  0.96687732  0.79517749  0.79970160    -0.01200
Br2071     Br  0.01655302  0.92489411  0.75976098    -0.01200
Br2072     Br  0.98666360  0.92073790  0.82459370    -0.01200
C2073       C  0.12196517  0.78316262  0.80594970    -0.02300
C2074       C  0.14645266  0.79320387  0.78797620     0.07400
C2075       C  0.17023964  0.77287423  0.77919397    -0.02400
C2076       C  0.16765897  0.74241367  0.78528140    -0.02400
C2077       C  0.14221990  0.73194147  0.80206833     0.07500
C2078       C  0.12050301  0.75310677  0.81383936    -0.02600
Br2079     Br  0.08815540  0.74177775  0.84087800    -0.01100
Br2080     Br  0.08937988  0.81046552  0.81873629    -0.01200
Br2081     Br  0.20026902  0.71541273  0.77214497    -0.01200
Br2082     Br  0.20797260  0.78741218  0.76127011    -0.01200
C2083       C  0.16575633  0.98849889  0.80343964    -0.02300
C2084       C  0.16283751  0.98148458  0.77328875     0.07400
C2085       C  0.16257968  0.00503144  0.75320671    -0.02400
C2086       C  0.16864721  0.53478897  0.76922660    -0.02400
C2087       C  0.16169514  0.54181737  0.79871402     0.07500
C2088       C  0.15780953  0.51818461  0.81824709    -0.02600
Br2089     Br  0.14183234  0.52560463  0.85705656    -0.01100
Br2090     Br  0.16964448  0.95743610  0.83171241    -0.01200
Br2091     Br  0.17704874  0.56609878  0.74229600    -0.01200
Br2092     Br  0.15440551  0.99796872  0.71225382    -0.01200
C2093       C  0.25287448  0.60452041  0.87126662    -0.02300
C2094       C  0.27369951  0.62783221  0.86567966     0.07400
C2095       C  0.26220905  0.65697682  0.86887499    -0.02400
C2096       C  0.22992595  0.66269737  0.87464634    -0.02400
C2097       C  0.20823875  0.63945883  0.87566971     0.07500
C2098       C  0.22040505  0.61045811  0.87672575    -0.02600
Br2099     Br  0.19174738  0.57897839  0.88347762    -0.01100
Br2100     Br  0.26816436  0.56448703  0.86847502    -0.01200
Br2101     Br  0.21409152  0.70260664  0.87752940    -0.01200
Br2102     Br  0.28958056  0.68926945  0.86166747    -0.01200
C2103       C  0.26245220  0.90898153  0.70112504    -0.02300
C2104       C  0.28287310  0.88454299  0.69907478     0.07400
C2105       C  0.26986847  0.85654548  0.69371095    -0.02400
C2106       C  0.23687813  0.85233788  0.69591359    -0.02400
C2107       C  0.21709841  0.87613830  0.70390420     0.07500
C2108       C  0.22974585  0.90474187  0.70385292    -0.02600
Br2109     Br  0.20289201  0.93817547  0.70951888    -0.01100
Br2110     Br  0.28001409  0.94800047  0.70360625    -0.01200
Br2111     Br  0.21892965  0.81407519  0.68964242    -0.01200
Br2112     Br  0.29750905  0.82382208  0.68595824    -0.01200
C2113       C  0.33716920  0.75045891  0.81531957    -0.02300
C2114       C  0.33878771  0.72590831  0.79607640     0.07400
C2115       C  0.33673110  0.73114299  0.76560361    -0.02400
C2116       C  0.33769006  0.76021834  0.75485877    -0.02400
C2117       C  0.33622481  0.78455820  0.77426789     0.07500
C2118       C  0.33320274  0.77923283  0.80443201    -0.02600
Br2119     Br  0.32624729  0.81173447  0.83126201    -0.01100
Br2120     Br  0.34395880  0.74589721  0.85641860    -0.01200
Br2121     Br  0.34404170  0.76652974  0.71374565    -0.01200
Br2122     Br  0.33573339  0.69869355  0.73812022    -0.01200
C2123       C  0.35259857  0.98157391  0.80431957    -0.02300
C2124       C  0.35348654  0.97282340  0.77442618     0.07400
C2125       C  0.35403806  0.99574398  0.75308510    -0.02400
C2126       C  0.34563701  0.52654563  0.76452392    -0.02400
C2127       C  0.35144721  0.53597141  0.79355028     0.07500
C2128       C  0.35881463  0.51403062  0.81471919    -0.02600
Br2129     Br  0.37365049  0.52467400  0.85370326    -0.01100
Br2130     Br  0.34829720  0.95295246  0.83514701    -0.01200
Br2131     Br  0.33141301  0.55461415  0.73552464    -0.01200
Br2132     Br  0.36046910  0.98760958  0.71173126    -0.01200
C2133       C  0.52001341  0.58528887  0.80379384    -0.02300
C2134       C  0.51810231  0.59179876  0.77349620     0.07400
C2135       C  0.48756120  0.59355540  0.76105006    -0.02400
C2136       C  0.46016357  0.59113623  0.77894450    -0.02400
C2137       C  0.46249334  0.59186128  0.81007674     0.07500
C2138       C  0.49295949  0.58747662  0.82218057    -0.02600
Br2139     Br  0.49735683  0.58306183  0.86389955    -0.01100
Br2140     Br  0.55921725  0.57047048  0.81944078    -0.01200
Br2141     Br  0.42027250  0.58379505  0.76035994    -0.01200
Br2142     Br  0.48338705  0.59962187  0.71956438    -0.01200
C2143       C  0.72311508  0.63446074  0.69829954    -0.02300
C2144       C  0.71331045  0.60824453  0.71162150     0.07400
C2145       C  0.73638322  0.58616089  0.71617311    -0.02400
C2146       C  0.76869228  0.59203195  0.71104121    -0.02400
C2147       C  0.77900375  0.62081884  0.70541935     0.07500
C2148       C  0.75574330  0.64147906  0.69669661    -0.02600
Br2149     Br  0.76869861  0.67912604  0.68272769    -0.01100
Br2150     Br  0.69173965  0.65921394  0.68059087    -0.01200
Br2151     Br  0.79898083  0.56070337  0.71039766    -0.01200
Br2152     Br  0.72410959  0.54858274  0.73114509    -0.01200
C2153       C  0.49848999  0.90070163  0.80783232    -0.02300
C2154       C  0.52692097  0.90681673  0.79333506     0.07400
C2155       C  0.52502653  0.92349340  0.76743044    -0.02400
C2156       C  0.49598522  0.92547114  0.75169590    -0.03200
C2157       C  0.46810966  0.91483437  0.76436964     0.07500
C2158       C  0.46935295  0.90797377  0.79437108    -0.02600
Br2159     Br  0.43325531  0.91690353  0.81821024    -0.01100
Br2160     Br  0.49880304  0.88067363  0.84473515    -0.01200
Br2161     Br  0.49380128  0.94425346  0.71426680    -0.01200
Br2162     Br  0.56136497  0.94568501  0.75590734    -0.01200
C2163       C  0.73555590  0.89101722  0.86884964    -0.02300
C2164       C  0.71758943  0.86651449  0.86001084     0.07400
C2165       C  0.73284572  0.83859964  0.85906412    -0.02400
C2166       C  0.76604756  0.83615240  0.86084189    -0.02400
C2167       C  0.78432065  0.86147213  0.86490595     0.07500
C2168       C  0.76880586  0.88830749  0.87144614    -0.02600
Br2169     Br  0.79354044  0.92190452  0.88098314    -0.01100
Br2170     Br  0.71555563  0.92888970  0.87397732    -0.01200
Br2171     Br  0.78692423  0.79865721  0.85430432    -0.01200
Br2172     Br  0.70859872  0.80373014  0.85294009    -0.01200
C2173       C  0.65072878  0.75200117  0.82022734    -0.02300
C2174       C  0.66175835  0.77099115  0.79837153     0.07400
C2175       C  0.68030293  0.75866123  0.77571097    -0.02400
C2176       C  0.67788643  0.72843122  0.76919756    -0.02400
C2177       C  0.65984501  0.71041196  0.78732282     0.07500
C2178       C  0.64993474  0.72159941  0.81477925    -0.02600
Br2179     Br  0.63448305  0.69624702  0.84491525    -0.01100
Br2180     Br  0.63873089  0.76705622  0.85830559    -0.01200
Br2181     Br  0.70063797  0.71145391  0.73685751    -0.01200
Br2182     Br  0.71220722  0.78153290  0.75699039    -0.01200
C2183       C  0.64931139  0.98304859  0.81135267    -0.02300
C2184       C  0.64983251  0.96100916  0.78912892     0.07400
C2185       C  0.64936297  0.96951476  0.75947773    -0.02400
C2186       C  0.64699880  0.49975797  0.75497580    -0.02400
C2187       C  0.64433301  0.52103314  0.77775113     0.07500
C2188       C  0.64630406  0.51199080  0.80707988    -0.02600
Br2189     Br  0.64249491  0.54057277  0.83856333    -0.01100
Br2190     Br  0.64979780  0.97260637  0.85223879    -0.01200
Br2191     Br  0.64561340  0.51174342  0.71449351    -0.01200
Br2192     Br  0.64932811  0.94017456  0.72849666    -0.01200
C2193       C  0.04919861  0.56431233  0.94434468    -0.02300
C2194       C  0.01922298  0.55401290  0.93387964     0.07400
C2195       C  0.01044376  0.56306743  0.90484666    -0.02400
C2196       C  0.02775191  0.58373352  0.88931807    -0.02400
C2197       C  0.05723592  0.59330344  0.89947181     0.07500
C2198       C  0.06757220  0.58415838  0.92740858    -0.02600
Br2199     Br  0.10798214  0.59786322  0.94146809    -0.01100
Br2200     Br  0.06972205  0.54694793  0.97771401    -0.01200
Br2201     Br  0.01112736  0.59693680  0.85215530    -0.01200
Br2202     Br  0.97994568  0.54254336  0.88066437    -0.01200
C2203       C  0.08408978  0.91447741  0.86026860    -0.02300
C2204       C  0.08401786  0.92693092  0.83220554     0.07400
C2205       C  0.06763516  0.95363103  0.82706046    -0.02400
C2206       C  0.04775262  0.96527486  0.84830689    -0.02400
C2207       C  0.04742262  0.95300947  0.87622638     0.07500
C2208       C  0.06661148  0.92835465  0.88270414    -0.02600
Br2209     Br  0.06963106  0.91443266  0.92217441    -0.01100
Br2210     Br  0.10682757  0.87831443  0.86770778    -0.01200
Br2211     Br  0.01846442  0.99606768  0.83778146    -0.01200
Br2212     Br  0.07279949  0.97575395  0.79156140    -0.01200
C2213       C  0.89673975  0.92934779  0.93736502    -0.02300
C2214       C  0.91418348  0.90819524  0.92112100     0.07400
C2215       C  0.94554792  0.90180888  0.93047486    -0.02400
C2216       C  0.96052619  0.92135287  0.95031010    -0.02400
C2217       C  0.94591844  0.94867524  0.95657482     0.07500
C2218       C  0.91272813  0.94872016  0.95648105    -0.02600
Br2219     Br  0.88755181  0.47352471  0.98528236    -0.01100
Br2220     Br  0.85157099  0.93124656  0.93423523    -0.01200
Br2221     Br  0.00117922  0.91229022  0.96730731    -0.01200
Br2222     Br  0.96970150  0.86952817  0.91391028    -0.01200
C2223       C  0.88511641  0.58154137  0.90360338    -0.02300
C2224       C  0.89905521  0.55331903  0.90180766     0.07400
C2225       C  0.90408825  0.54035446  0.87391513    -0.02400
C2226       C  0.90255431  0.55804287  0.84897778    -0.02400
C2227       C  0.88971945  0.58689690  0.85069287     0.07500
C2228       C  0.87879060  0.59766460  0.87798002    -0.02600
Br2229     Br  0.85682323  0.63486155  0.88084487    -0.01100
Br2230     Br  0.87551484  0.59787382  0.94161237    -0.01200
Br2231     Br  0.92014871  0.54249434  0.81307471    -0.01200
Br2232     Br  0.91557139  0.49906757  0.86912056    -0.01200
C2233       C  0.57494754  0.82094742  0.91138503    -0.02300
C2234       C  0.57539260  0.81497225  0.88090506     0.07400
C2235       C  0.56419657  0.78759828  0.87077983    -0.02400
C2236       C  0.55323451  0.76642633  0.89052165    -0.02400
C2237       C  0.55017311  0.77270383  0.92169377     0.07500
C2238       C  0.56238027  0.80029899  0.93148080    -0.02600
Br2239     Br  0.55967155  0.81221822  0.97178278    -0.01100
Br2240     Br  0.58725685  0.85951912  0.92529974    -0.01200
Br2241     Br  0.53760453  0.73126626  0.87078183    -0.01200
Br2242     Br  0.56212662  0.77872645  0.82869739    -0.01200
C2243       C  0.43835584  0.67541315  0.95669613    -0.02300
C2244       C  0.43804085  0.70474157  0.94511115     0.07400
C2245       C  0.41287304  0.71066829  0.92484562    -0.02400
C2246       C  0.38787269  0.69124676  0.92456603    -0.02400
C2247       C  0.39684665  0.66189113  0.92135444     0.07500
C2248       C  0.42113620  0.65306824  0.94100355    -0.02600
Br2249     Br  0.43135687  0.61211601  0.94538106    -0.01100
Br2250     Br  0.46509852  0.66463704  0.98927792    -0.01200
Br2251     Br  0.34557847  0.70412370  0.91724733    -0.01200
Br2252     Br  0.42202027  0.72035182  0.88449153    -0.01200
C2253       C  0.44546410  0.80178904  0.85472080    -0.02300
C2254       C  0.43928669  0.81109753  0.88363289     0.07400
C2255       C  0.41771656  0.83431831  0.88882305    -0.02400
C2256       C  0.40317672  0.84899470  0.86503903    -0.02400
C2257       C  0.41046907  0.84029536  0.83600709     0.07500
C2258       C  0.43122427  0.81605345  0.83110462    -0.02600
Br2259     Br  0.43980789  0.80046161  0.79207949    -0.01100
Br2260     Br  0.47277549  0.76851964  0.84687010    -0.01200
Br2261     Br  0.37439248  0.88131177  0.87245330    -0.01200
Br2262     Br  0.40890667  0.84591431  0.92858647    -0.01200
C2263       C  0.59290932  0.63225637  0.87664145    -0.02300
C2264       C  0.57951682  0.63737129  0.84864177     0.07400
C2265       C  0.54846548  0.64981373  0.84698387    -0.02400
C2266       C  0.53129055  0.65603128  0.87237634    -0.02400
C2267       C  0.54688949  0.65598706  0.89980643     0.07500
C2268       C  0.57713567  0.64279169  0.90199851    -0.02600
Br2269     Br  0.59707981  0.64059077  0.93992348    -0.01100
Br2270     Br  0.63459306  0.61505506  0.88044388    -0.01200
Br2271     Br  0.48713335  0.66779580  0.86791538    -0.01200
Br2272     Br  0.52935431  0.66384001  0.81108199    -0.01200
C2273       C  0.08871393  0.55071991  0.70621336    -0.02300
C2274       C  0.09429430  0.56282361  0.67839492     0.07400
C2275       C  0.10578595  0.59172529  0.67650354    -0.02400
C2276       C  0.10990410  0.60904404  0.70201206    -0.02400
C2277       C  0.09998617  0.59821741  0.72920008     0.07500
C2278       C  0.08866466  0.56910062  0.73098696    -0.02600
Br2279     Br  0.07028466  0.55413176  0.76645362    -0.01100
Br2280     Br  0.07816414  0.50955758  0.71090404    -0.01200
Br2281     Br  0.12620076  0.64838700  0.69935991    -0.01200
Br2282     Br  0.11452209  0.60748542  0.63853000    -0.01200
C2283       C  0.09029284  0.95732032  0.62292109    -0.02300
C2284       C  0.05727031  0.95501731  0.62051188     0.07400
C2285       C  0.04516852  0.92641831  0.62344084    -0.02400
C2286       C  0.06109910  0.90639000  0.64203214    -0.02400
C2287       C  0.09029905  0.91475457  0.65482513     0.07500
C2288       C  0.10666569  0.93810038  0.64179225    -0.02600
Br2289     Br  0.15108633  0.94297808  0.64880001    -0.01100
Br2290     Br  0.11276880  0.98197781  0.59621001    -0.01200
Br2291     Br  0.04131400  0.86983057  0.65176305    -0.01200
Br2292     Br  0.00667848  0.91591118  0.60351462    -0.01200
C2293       C  0.98228694  0.56958821  0.67007779    -0.02300
C2294       C  0.97360401  0.55347065  0.64433316     0.07400
C2295       C  0.94060109  0.55457212  0.63694470    -0.02400
C2296       C  0.91916252  0.57227421  0.65390078    -0.02400
C2297       C  0.93053436  0.59113146  0.67629461     0.07500
C2298       C  0.96310880  0.59204419  0.68118490    -0.02600
Br2299     Br  0.98156287  0.61978082  0.70809546    -0.01100
Br2300     Br  0.01004307  0.55352715  0.69973912    -0.01200
Br2301     Br  0.87411274  0.57009044  0.64766625    -0.01200
Br2302     Br  0.92267551  0.52791750  0.60840573    -0.01200
C2303       C  0.92932524  0.90692123  0.71862885    -0.02300
C2304       C  0.92289785  0.92069376  0.74566178     0.07400
C2305       C  0.93367567  0.94966828  0.75125908    -0.02400
C2306       C  0.95268386  0.96372122  0.73111093    -0.02400
C2307       C  0.95914674  0.95017463  0.70405674     0.07500
C2308       C  0.94700400  0.92194048  0.69756961    -0.02600
Br2309     Br  0.95337811  0.90415186  0.65974563    -0.01100
Br2310     Br  0.91507898  0.86739761  0.71088696    -0.01200
Br2311     Br  0.97220095  0.00060326  0.74196875    -0.01200
Br2312     Br  0.92238186  0.97130409  0.78636664    -0.01200
C2313       C  0.59921374  0.68843683  0.66054691    -0.02300
C2314       C  0.58459396  0.66144965  0.66678731     0.07400
C2315       C  0.56194079  0.65055866  0.64652063    -0.02400
C2316       C  0.54906655  0.66976604  0.62501561    -0.02400
C2317       C  0.56007760  0.69910649  0.62355484     0.07500
C2318       C  0.59004321  0.70397667  0.63560793    -0.02600
Br2319     Br  0.62246641  0.71842747  0.61041111    -0.01100
Br2320     Br  0.62882685  0.70683504  0.68670772    -0.01200
Br2321     Br  0.51365376  0.65755545  0.60130010    -0.01200
Br2322     Br  0.54497468  0.61175512  0.65118784    -0.01200
C2323       C  0.45916681  0.83812723  0.66697783    -0.02300
C2324       C  0.42637802  0.83618033  0.66415143     0.07400
C2325       C  0.41405532  0.81371633  0.64577717    -0.02400
C2326       C  0.43482793  0.79404054  0.63040432    -0.02400
C2327       C  0.46796830  0.79433989  0.63654634     0.07500
C2328       C  0.47776922  0.81393957  0.65939361    -0.02600
Br2329     Br  0.50859979  0.80304765  0.68932685    -0.01100
Br2330     Br  0.47923126  0.87131162  0.68522962    -0.01200
Br2331     Br  0.41660036  0.76364562  0.60607482    -0.01200
Br2332     Br  0.36894139  0.80961822  0.64251820    -0.01200
C2333       C  0.62235729  0.81582680  0.66043589    -0.02300
C2334       C  0.59158388  0.82334614  0.65063924     0.07400
C2335       C  0.57777380  0.84900852  0.66312192    -0.02400
C2336       C  0.58680346  0.85784136  0.69141728    -0.02400
C2337       C  0.61372421  0.84542622  0.70470457     0.07500
C2338       C  0.63341955  0.82692493  0.68761249    -0.02600
Br2339     Br  0.67518667  0.81726868  0.70102029    -0.01100
Br2340     Br  0.65037100  0.79393446  0.63497585    -0.01200
Br2341     Br  0.56118138  0.88576382  0.71200249    -0.01200
Br2342     Br  0.55361710  0.87640768  0.63969491    -0.01200
C2343       C  0.43248531  0.67434496  0.69188649    -0.02300
C2344       C  0.45672639  0.69387993  0.69989572     0.07400
C2345       C  0.46238645  0.70072625  0.72928667    -0.02400
C2346       C  0.44309867  0.68911327  0.75093035    -0.02400
C2347       C  0.41996784  0.66759585  0.74354041     0.07500
C2348       C  0.41449346  0.66055029  0.71367050    -0.02600
Br2349     Br  0.38291769  0.63230104  0.70214080    -0.01100
Br2350     Br  0.42413690  0.66718764  0.65094557    -0.01200
Br2351     Br  0.44682543  0.70616964  0.78990887    -0.01200
Br2352     Br  0.49668112  0.72679471  0.73940139    -0.01200
loop_ 
_geom_bond_atom_site_label_1 
_geom_bond_atom_site_label_2 
_geom_bond_distance 
_geom_bond_site_symmetry_2 
_ccdc_geom_bond_type 
C1            C3   1.558       .  S
C1            C5   1.532       .  S
C1            C4   1.556       .  S
C1          C553   1.548       .  S
C2            C6   1.537       .  S
C2            C8   1.526       .  S
C2            C7   1.557       .  S
C2          C563   1.555       .  S
C3           C11   1.388       .  A
C3            C6   1.379       .  A
C4           C15   1.382       .  A
C4            C7   1.436       .  A
C5           C19   1.385       .  A
C5            C8   1.376       .  A
C6            C9   1.371       .  A
C7           C13   1.389       .  A
C8           C16   1.380       .  A
C9           N10   1.355       .  A
C9           H22   1.076       .  S
N10          C11   1.370       .  A
N10         C570   1.460       .  S
C11          H12   1.071       .  S
C13          N14   1.356       .  A
C13          H23   1.083       .  S
N14          C15   1.350       .  A
N14          N60   1.408       .  S
C15          H21   1.081       .  S
C16          N17   1.350       .  A
C16          H18   1.083       .  S
N17          C19   1.352       .  A
N17         C580   1.430       .  S
C19          H20   1.079       .  S
C24          C28   1.556   1_655  S
C24          C27   1.527       .  S
C24         C530   1.546       .  S
C24        C1202   1.531       .  S
C25          C29   1.534       .  S
C25          C30   1.542       .  S
C25         C520   1.548       .  S
C25        C1207   1.546       .  S
C26        C1200   1.527       .  S
C26          C34   1.370       .  A
C26          C29   1.381   1_655  A
C27          C38   1.375       .  A
C27        C1206   1.408   1_645  A
C28          C42   1.373       .  A
C28          C31   1.407       .  A
C29          C32   1.386       .  A
C30          C36   1.368       .  A
C30        C1203   1.425   1_455  A
C31        C1201   1.546   1_545  S
C31          C39   1.384       .  A
C32          N33   1.354   1_455  A
C32          H45   1.079       .  S
N33          C34   1.351       .  A
N33         C543   1.434       .  S
C34          H35   1.083       .  S
C36          N37   1.348   1_455  A
C36          H46   1.082       .  S
N37        C1214   1.354       .  A
N37        N1259   1.400       .  S
C38        N1213   1.350       .  A
C38          H44   1.082       .  S
C39          N40   1.352       .  A
C39          H41   1.082       .  S
N40          C42   1.348       .  A
N40         C510   1.434       .  S
C42          H43   1.079       .  S
C47          C49   1.532       .  S
C47          C51   1.541       .  S
C47         C480   1.561       .  S
C47         C638   1.541       .  S
C48          C52   1.534       .  S
C48          C54   1.530       .  S
C48         C473   1.585       .  S
C48         C641   1.587       .  S
C49          C57   1.392       .  A
C49          C52   1.380       .  A
C50         C635   1.544       .  S
C50          C61   1.368   1_556  A
C50          C53   1.441       .  A
C51          C65   1.382       .  A
C51          C54   1.380       .  A
C52          C55   1.382       .  A
C53         C636   1.598       .  S
C53          C59   1.398   1_556  A
C54          C62   1.381       .  A
C55          N56   1.347       .  A
C55          H68   1.082       .  S
N56          C57   1.351       .  A
N56         C490   1.434       .  S
C57          H58   1.082       .  S
C59          N60   1.364       .  A
C59          H69   1.079       .  S
N60          C61   1.350       .  A
C61          H67   1.081       .  S
C62          N63   1.358       .  A
C62          H64   1.083       .  S
N63          C65   1.352       .  A
N63         C503   1.439       .  S
C65          H66   1.080       .  S
C70          C74   1.531       .  S
C70         C453   1.552       .  S
C70        C1248   1.551       .  S
C70         C661   1.538       .  S
C71          C75   1.556   1_455  S
C71          C77   1.530       .  S
C71         C430   1.559       .  S
C71         C664   1.535       .  S
C72        C1246   1.544   1_545  S
C72          C80   1.384       .  A
C72          C75   1.411       .  A
C73         C658   1.540       .  S
C73          C84   1.365   1_556  A
C73        C1252   1.429   1_655  A
C74          C88   1.385       .  A
C74        C1253   1.381   1_655  A
C75          C78   1.370       .  A
C76         C659   1.554   1_455  S
C76          C82   1.386   1_556  A
C76        C1249   1.435   1_445  A
C77        C1250   1.385   1_445  A
C77        C1261   1.371       .  A
C78          N79   1.348       .  A
C78          H91   1.079       .  S
N79          C80   1.350       .  A
N79         C460   1.432       .  S
C80          H81   1.082       .  S
C82          N83   1.349   1_455  A
C82          H92   1.080       .  S
N83        C1260   1.339   1_545  A
N83        N1213   1.392       .  S
C84        N1259   1.346       .  A
C84          H90   1.082       .  S
C85        C1253   1.372       .  A
C85          N86   1.345       .  A
C85          H87   1.083       .  S
N86          C88   1.350   1_455  A
N86         C443   1.423       .  S
C88          H89   1.078       .  S
O93        Cr111   1.964       .  S
O93         C101   1.267       .  A
O94        Cr111   2.006       .  S
O94          C95   1.256       .  A
C95          O96   1.256       .  A
C95         C573   1.483       .  S
O96        Cr112   1.998       .  S
O97        Cr112   2.013       .  S
O97          C98   1.269       .  A
C98          O99   1.258       .  A
C98         C420   1.490       .  S
O99        Cr113   1.964       .  S
O100       Cr113   2.074       .  S
O100        C101   1.288       .  A
C101        C390   1.492       .  S
O102       Cr111   2.005       .  S
O102        C110   1.252       .  A
O103       Cr111   1.968       .  S
O103        C104   1.267       .  A
C104        O105   1.277       .  A
C104        C410   1.488       .  S
O105       Cr112   2.029       .  S
O106       Cr112   1.954       .  S
O106        C107   1.254       .  A
C107        O108   1.273       .  A
C107        C400   1.495       .  S
O108       Cr113   2.042       .  S
O109       Cr113   2.017       .  S
O109        C110   1.254       .  A
C110        C470   1.507       .  S
Cr111       O114   1.764       .  S
Cr112       O114   1.772       .  S
Cr113       O114   1.775       .  S
O115       Cr133   1.979       .  S
O115        C123   1.257       .  A
O116       Cr133   1.971       .  S
O116        C117   1.253       .  A
C117        O118   1.272       .  A
C117        C500   1.489       .  S
O118       Cr134   2.021       .  S
O119       Cr134   2.000       .  S
O119        C120   1.254       .  A
C120        O121   1.247       .  A
C120        C423   1.485       .  S
O121       Cr135   1.966       .  S
O122       Cr135   2.066       .  S
O122        C123   1.280       .  A
C123        C370   1.522       .  S
O124       Cr133   1.980       .  S
O124        C132   1.253       .  A
O125       Cr133   1.992       .  S
O125        C126   1.263       .  A
C126        O127   1.261       .  A
C126        C413   1.476       .  S
O127       Cr134   2.006       .  S
O128       Cr134   1.974       .  S
O128        C129   1.269       .  A
C129        O130   1.288       .  A
C129        C380   1.499       .  S
O130       Cr135   2.066       .  S
O131       Cr135   1.997       .  S
O131        C132   1.256       .  A
C132        C550   1.486       .  S
Cr133       O136   1.777       .  S
Cr134       O136   1.789       .  S
Cr135       O136   1.787       .  S
O137       Cr155   2.004       .  S
O137        C145   1.270       .  A
O138       Cr155   1.945       .  S
O138        C139   1.250       .  A
C139        O140   1.262       .  A
C139        C493   1.476       .  S
O140       Cr156   2.014       .  S
O141       Cr156   2.031       .  S
O141        C142   1.268       .  A
C142        O143   1.253       .  A
C142        C360   1.523       .  S
O143       Cr157   1.994       .  S
O144       Cr157   2.022       .  S
O144        C145   1.268       .  A
C145        C393   1.498       .  S
O146       Cr155   1.984       .  S
O146        C154   1.253       .  A
O147       Cr155   1.987       .  S
O147        C148   1.261       .  A
C148        O149   1.268       .  A
C148        C353   1.484       .  S
O149       Cr156   2.006       .  S
O150       Cr156   2.004       .  S
O150        C151   1.274       .  A
C151        O152   1.274       .  A
C151        C340   1.475       .  S
O152       Cr157   2.002       .  S
O153       Cr157   2.033       .  S
O153        C154   1.265       .  A
C154        C560   1.488       .  S
Cr155       O158   1.752       .  S
Cr156       O158   1.772       .  S
Cr157       O158   1.777       .  S
O159       Cr177   2.017       .  S
O159        C167   1.271       .  A
O160       Cr177   1.946       .  S
O160        C161   1.252       .  A
C161        O162   1.272       .  A
C161        C583   1.492       .  S
O162       Cr178   2.027       .  S
O163       Cr178   2.046       .  S
O163        C164   1.266       .  A
C164        O165   1.240       .  A
C164        C363   1.521       .  S
O165       Cr179   1.971       .  S
O166       Cr179   2.055       .  S
O166        C167   1.277       .  A
C167        C373   1.531       .  S
O168       Cr177   1.976       .  S
O168        C176   1.257       .  A
O169       Cr177   2.005       .  S
O169        C170   1.265       .  A
C170        O171   1.267       .  A
C170        C350   1.497       .  S
O171       Cr178   2.000       .  S
O172       Cr178   2.045       .  S
O172        C173   1.285       .  A
C173        O174   1.282       .  A
C173        C330   1.507       .  S
O174       Cr179   2.018       .  S
O175       Cr179   2.041       .  S
O175        C176   1.261       .  A
C176        C483   1.505       .  S
Cr177       O180   1.754       .  S
Cr178       O180   1.769       .  S
Cr179       O180   1.780       .  S
O181       Cr199   2.012       .  S
O181        C189   1.264       .  A
O182       Cr199   1.942       .  S
O182        C183   1.253       .  A
C183        O184   1.262       .  A
C183        C440   1.458       .  S
O184       Cr200   1.991       .  S
O185       Cr200   2.038       .  S
O185        C186   1.264       .  A
C186        O187   1.252       .  A
C186        C310   1.509       .  S
O187       Cr201   1.994       .  S
O188       Cr201   2.056       .  S
O188        C189   1.275       .  A
C189        C303   1.541       .  S
O190       Cr199   1.984       .  S
O190        C198   1.257       .  A
O191       Cr199   1.991       .  S
O191        C192   1.258       .  A
C192        O193   1.273       .  A
C192        C320   1.514       .  S
O193       Cr200   2.035       .  S
O194       Cr200   2.017       .  S
O194        C195   1.278       .  A
C195        O196   1.276       .  A
C195        C343   1.487       .  S
O196       Cr201   2.005       .  S
O197       Cr201   2.029       .  S
O197        C198   1.265       .  A
C198        C523   1.493       .  S
Cr199       O202   1.765       .  S
Cr200       O202   1.784       .  S
Cr201       O202   1.784       .  S
O203       Cr221   2.020       .  S
O203        C211   1.268       .  A
O204       Cr221   1.973       .  S
O204        C205   1.259       .  A
C205        O206   1.257       .  A
C205        C513   1.475       .  S
O206       Cr222   1.976       .  S
O207       Cr222   2.038       .  S
O207        C208   1.271       .  A
C208        O209   1.256       .  A
C208        C313   1.512       .  S
O209       Cr223   1.995       .  S
O210       Cr223   2.049       .  S
O210        C211   1.276       .  A
C211        C290   1.527       .  S
O212       Cr221   2.009       .  S
O212        C220   1.260       .  A
O213       Cr221   1.992       .  S
O213        C214   1.262       .  A
C214        O215   1.273       .  A
C214        C323   1.502       .  S
O215       Cr222   2.028       .  S
O216       Cr222   1.984       .  S
O216        C217   1.265       .  A
C217        O218   1.282       .  A
C217        C333   1.495       .  S
O218       Cr223   2.042       .  S
O219       Cr223   2.014       .  S
O219        C220   1.262       .  A
C220        C433   1.502       .  S
Cr221       O224   1.781       .  S
Cr222       O224   1.786       .  S
Cr223       O224   1.776       .  S
O225       Cr243   1.986       .  S
O225        C233   1.260       .  A
O226       Cr243   1.985       .  S
O226        C227   1.251       .  A
C227        O228   1.260       .  A
C227        C450   1.496       .  S
O228       Cr244   2.031       .  S
O229       Cr244   2.018       .  S
O229        C230   1.287       .  A
C230        O231   1.280       .  A
C230        C403   1.488       .  S
O231       Cr245   2.012       .  S
O232       Cr245   2.027       .  S
O232        C233   1.271       .  A
C233        C280   1.506       .  S
O234       Cr243   1.933       .  S
O234        C242   1.251       .  A
O235       Cr243   2.015       .  S
O235        C236   1.269       .  A
C236        O237   1.279       .  A
C236        C300   1.546       .  S
O237       Cr244   2.053       .  S
O238       Cr244   1.970       .  S
O238        C239   1.241       .  A
C239        O240   1.263       .  A
C239        C270   1.530       .  S
O240       Cr245   2.043       .  S
O241       Cr245   2.000       .  S
O241        C242   1.265       .  A
C242        C540   1.469       .  S
Cr243       O246   1.764       .  S
Cr244       O246   1.773       .  S
Cr245       O246   1.778       .  S
O247       Cr265   2.017       .  S
O247        C255   1.269       .  A
O248       Cr265   1.977       .  S
O248        C249   1.259       .  A
C249        O250   1.257       .  A
C249        C463   1.476       .  S
O250       Cr266   1.969       .  S
O251       Cr266   2.038       .  S
O251        C252   1.266       .  A
C252        O253   1.246       .  A
C252        C273   1.522       .  S
O253       Cr267   1.986       .  S
O254       Cr267   2.059       .  S
O254        C255   1.281       .  A
C255        C293   1.528       .  S
O256       Cr265   2.001       .  S
O256        C264   1.259       .  A
O257       Cr265   1.989       .  S
O257        C258   1.263       .  A
C258        O259   1.273       .  A
C258        C283   1.495       .  S
O259       Cr266   2.013       .  S
O260       Cr266   2.006       .  S
O260        C261   1.271       .  A
C261        O262   1.281       .  A
C261        C383   1.499       .  S
O262       Cr267   2.035       .  S
O263       Cr267   1.998       .  S
O263        C264   1.258       .  A
C264        C533   1.484       .  S
Cr265       O268   1.772       .  S
Cr266       O268   1.772       .  S
Cr267       O268   1.774       .  S
C269        C270   1.419       .  A
C269        C274   1.424       .  A
C269       Br276   1.933       .  S
C270        C271   1.435       .  A
C271        C272   1.416       .  A
C271       Br278   1.941       .  S
C272        C273   1.410       .  A
C272       Br277   1.933       .  S
C273        C274   1.431       .  A
C274       Br275   1.940       .  S
C279        C280   1.415       .  A
C279       C1460   1.414       .  A
C279       Br286   1.929       .  S
C280        C281   1.418       .  A
C281       C1458   1.418       .  A
C281       Br288   1.918       .  S
C282        C283   1.413       .  A
C282       C1457   1.414   1_545  A
C282       Br287   1.930       .  S
C283        C284   1.415       .  A
C284       C1455   1.414   1_545  A
C284       Br285   1.929       .  S
C289        C290   1.415       .  A
C289        C294   1.424   1_455  A
C289       Br296   1.920       .  S
C290        C291   1.416   1_455  A
C291        C292   1.425       .  A
C291       Br298   1.913       .  S
C292        C293   1.416       .  A
C292       Br297   1.917       .  S
C293        C294   1.417       .  A
C294       Br295   1.913   1_655  S
C299        C300   1.428       .  A
C299        C304   1.438   1_655  A
C299       Br306   1.928       .  S
C300        C301   1.428       .  A
C301        C302   1.417   1_655  A
C301       Br308   1.940       .  S
C302        C303   1.424       .  A
C302       Br307   1.939       .  S
C303        C304   1.423       .  A
C304       Br305   1.929       .  S
C309        C310   1.410       .  A
C309        C314   1.421       .  A
C309       Br316   1.930       .  S
C310        C311   1.415       .  A
C311        C312   1.420       .  A
C311       Br318   1.921       .  S
C312        C313   1.412       .  A
C312       Br317   1.929       .  S
C313        C314   1.424       .  A
C314       Br315   1.927       .  S
C319        C320   1.417       .  A
C319       C1500   1.420       .  A
C319       Br326   1.927       .  S
C320        C321   1.420       .  A
C321       C1498   1.419       .  A
C321       Br328   1.921       .  S
C322        C323   1.412       .  A
C322       C1497   1.416       .  A
C322       Br327   1.926       .  S
C323        C324   1.413       .  A
C324       C1495   1.417   1_545  A
C324       Br325   1.917       .  S
C329        C330   1.412       .  A
C329        C334   1.421       .  A
C329       Br336   1.925       .  S
C330        C331   1.414       .  A
C331        C332   1.414       .  A
C331       Br338   1.904       .  S
C332        C333   1.406       .  A
C332       Br337   1.931       .  S
C333        C334   1.410       .  A
C334       Br335   1.908       .  S
C339        C340   1.401       .  A
C339        C344   1.404       .  A
C339       Br346   1.931       .  S
C340        C341   1.410       .  A
C341        C342   1.413       .  A
C341       Br348   1.913       .  S
C342        C343   1.405       .  A
C342       Br347   1.920       .  S
C343        C344   1.408       .  A
C344       Br345   1.899       .  S
C349        C350   1.414       .  A
C349        C354   1.411       .  A
C349       Br356   1.914       .  S
C350        C351   1.415       .  A
C351        C352   1.411       .  A
C351       Br358   1.925       .  S
C352        C353   1.410       .  A
C352       Br357   1.928       .  S
C353        C354   1.410       .  A
C354       Br355   1.930       .  S
C359        C360   1.416       .  A
C359       C1540   1.421       .  A
C359       Br366   1.941       .  S
C360        C361   1.431       .  A
C361       C1538   1.419       .  A
C361       Br368   1.940       .  S
C362        C363   1.415       .  A
C362       C1537   1.419   1_545  A
C362       Br367   1.936       .  S
C363        C364   1.436       .  A
C364       C1535   1.417   1_545  A
C364       Br365   1.944       .  S
C369        C370   1.421       .  A
C369        C374   1.427       .  A
C369       Br376   1.920       .  S
C370        C371   1.408       .  A
C371        C372   1.426       .  A
C371       Br378   1.924       .  S
C372        C373   1.422       .  A
C372       Br377   1.908       .  S
C373        C374   1.412       .  A
C374       Br375   1.925       .  S
C379        C380   1.411       .  A
C379        C384   1.418       .  A
C379       Br386   1.908       .  S
C380        C381   1.406       .  A
C381        C382   1.415       .  A
C381       Br388   1.926       .  S
C382        C383   1.413       .  A
C382       Br387   1.909       .  S
C383        C384   1.407       .  A
C384       Br385   1.924       .  S
C389        C390   1.408       .  A
C389        C394   1.411       .  A
C389       Br396   1.925       .  S
C390        C391   1.412       .  A
C391        C392   1.417       .  A
C391       Br398   1.921       .  S
C392        C393   1.406       .  A
C392       Br397   1.920       .  S
C393        C394   1.410       .  A
C394       Br395   1.917       .  S
C399        C400   1.408       .  A
C399        C404   1.415       .  A
C399       Br406   1.923       .  S
C400        C401   1.414       .  A
C401        C402   1.409       .  A
C401       Br408   1.913       .  S
C402        C403   1.405       .  A
C402       Br407   1.928       .  S
C403        C404   1.409       .  A
C404       Br405   1.903       .  S
C409        C410   1.410       .  A
C409        C414   1.401       .  A
C409       Br416   1.928       .  S
C410        C411   1.409       .  A
C411        C412   1.407       .  A
C411       Br418   1.927       .  S
C412        C413   1.406       .  A
C412       Br417   1.916       .  S
C413        C414   1.413       .  A
C414       Br415   1.927       .  S
C419        C420   1.419       .  A
C419       C1600   1.409       .  A
C419       Br426   1.933       .  S
C420        C421   1.415       .  A
C421       C1598   1.410       .  A
C421       Br428   1.933       .  S
C422        C423   1.415       .  A
C422       C1597   1.412   1_545  A
C422       Br427   1.934       .  S
C423        C424   1.408       .  A
C424       C1595   1.408   1_545  A
C424       Br425   1.932       .  S
C429        C430   1.437       .  A
C429        C434   1.430       .  A
C429       Br436   1.931       .  S
C430        C431   1.420       .  A
C431        C432   1.389       .  A
C431       Br438   1.932   1_455  S
C432        C433   1.397       .  A
C432       Br437   1.911       .  S
C433        C434   1.414       .  A
C434       Br435   1.915       .  S
C439        C440   1.407       .  A
C439        C444   1.407       .  A
C439       Br446   1.927       .  S
C440        C441   1.410       .  A
C441        C442   1.383       .  A
C441       Br448   1.933       .  S
C442        C443   1.399       .  A
C442       Br447   1.920       .  S
C443        C444   1.409       .  A
C444       Br445   1.920       .  S
C449        C450   1.414       .  A
C449        C454   1.409       .  A
C449       Br456   1.914       .  S
C450        C451   1.419       .  A
C451        C452   1.415       .  A
C451       Br458   1.927       .  S
C452        C453   1.408       .  A
C452       Br457   1.922       .  S
C453        C454   1.402       .  A
C454      Br1631   1.928       .  S
Br455      C1630   1.929       .  S
C459        C460   1.400       .  A
C459        C464   1.403       .  A
C459       Br466   1.927       .  S
C460        C461   1.413       .  A
C461        C462   1.402       .  A
C461       Br468   1.933       .  S
C462        C463   1.415       .  A
C462       Br467   1.935       .  S
C463        C464   1.416       .  A
C464       Br465   1.926       .  S
C469        C470   1.416       .  A
C469        C474   1.430       .  A
C469       Br476   1.933       .  S
C470        C471   1.409       .  A
C471        C472   1.410       .  A
C471       Br478   1.961       .  S
C472        C473   1.452       .  A
C472       Br477   1.938       .  S
C473        C474   1.428       .  A
C474       Br475   1.914       .  S
C479        C480   1.439       .  A
C479        C484   1.435       .  A
C479       Br486   1.928       .  S
C480        C481   1.430       .  A
C481        C482   1.388       .  A
C481       Br488   1.937       .  S
C482        C483   1.392       .  A
C482       Br487   1.910       .  S
C483        C484   1.415       .  A
C484       Br485   1.919       .  S
C489        C490   1.406       .  A
C489        C494   1.392       .  A
C489       Br496   1.923       .  S
C490        C491   1.404       .  A
C491        C492   1.413       .  A
C491       Br498   1.922       .  S
C492        C493   1.414       .  A
C492       Br497   1.925       .  S
C493        C494   1.416       .  A
C494       Br495   1.944       .  S
C499        C500   1.415       .  A
C499        C504   1.414       .  A
C499       Br506   1.926       .  S
C500        C501   1.427       .  A
C501        C502   1.393       .  A
C501       Br508   1.939       .  S
C502        C503   1.407       .  A
C502       Br507   1.942       .  S
C503        C504   1.407       .  A
C504       Br505   1.923       .  S
C509        C510   1.413       .  A
C509        C514   1.400       .  A
C509       Br516   1.936       .  S
C510        C511   1.405       .  A
C511        C512   1.406       .  A
C511       Br518   1.926       .  S
C512        C513   1.414       .  A
C512       Br517   1.930       .  S
C513        C514   1.414       .  A
C514       Br515   1.933       .  S
C519        C520   1.402       .  A
C519        C524   1.408       .  A
C519       Br526   1.927       .  S
C520        C521   1.409       .  A
C521        C522   1.415       .  A
C521       Br528   1.921       .  S
C522        C523   1.418       .  A
C522       Br527   1.926       .  S
C523        C524   1.413       .  A
C524       Br525   1.916       .  S
C529        C530   1.415       .  A
C529        C534   1.384       .  A
C529       Br536   1.935       .  S
C530        C531   1.437       .  A
C531        C532   1.425       .  A
C531       Br538   1.929       .  S
C532        C533   1.409       .  A
C532       Br537   1.922       .  S
C533        C534   1.392       .  A
C534       Br535   1.911       .  S
C539        C540   1.406       .  A
C539        C544   1.409       .  A
C539       Br546   1.926       .  S
C540        C541   1.415       .  A
C541        C542   1.390       .  A
C541       Br548   1.936       .  S
C542        C543   1.404       .  A
C542       Br547   1.929       .  S
C543        C544   1.415       .  A
C544       Br545   1.920       .  S
C549        C550   1.411       .  A
C549        C554   1.397       .  A
C549       Br556   1.917       .  S
C550        C551   1.416       .  A
C551        C552   1.421       .  A
C551       Br558   1.925       .  S
C552        C553   1.418       .  A
C552       Br557   1.924       .  S
C553        C554   1.397       .  A
C554       Br555   1.922       .  S
C559        C560   1.393       .  A
C559        C564   1.387       .  A
C559       Br566   1.921       .  S
C560        C561   1.415       .  A
C561        C562   1.430       .  A
C561       Br568   1.924       .  S
C562        C563   1.426       .  A
C562       Br567   1.923       .  S
C563        C564   1.433       .  A
C564       Br565   1.951       .  S
C569        C570   1.407       .  A
C569        C574   1.405       .  A
C569       Br576   1.928       .  S
C570        C571   1.417       .  A
C571        C572   1.408       .  A
C571       Br578   1.930       .  S
C572        C573   1.405       .  A
C572       Br577   1.909       .  S
C573        C574   1.409       .  A
C574       Br575   1.907       .  S
C579        C580   1.405       .  A
C579        C584   1.412       .  A
C579       Br586   1.925       .  S
C580        C581   1.395       .  A
C581        C582   1.401       .  A
C581       Br588   1.932       .  S
C582        C583   1.428       .  A
C582       Br587   1.938       .  S
C583        C584   1.417       .  A
C584       Br585   1.929       .  S
C589        C591   1.558       .  S
C589        C593   1.531       .  S
C589        C592   1.552       .  S
C589       C1141   1.547       .  S
C590        C594   1.538       .  S
C590        C596   1.522       .  S
C590        C595   1.551       .  S
C590       C1151   1.554       .  S
C591        C599   1.389       .  A
C591        C594   1.380       .  A
C592        C603   1.379       .  A
C592        C595   1.435       .  A
C593        C607   1.383       .  A
C593        C596   1.378       .  A
C594        C597   1.370       .  A
C595        C601   1.383       .  A
C596        C604   1.375       .  A
C597        N598   1.357       .  A
C597        H610   1.072       .  S
N598        C599   1.368       .  A
N598       C1158   1.461       .  S
C599        H600   1.071       .  S
C601        N602   1.352       .  A
C601        H611   1.083       .  S
N602        C603   1.349       .  A
N602        N648   1.402       .  S
C603        H609   1.081       .  S
C604        N605   1.348       .  A
C604        H606   1.083       .  S
N605        C607   1.350       .  A
N605       C1168   1.425       .  S
C607        H608   1.078       .  S
C612       C1790   1.526       .  S
C612        C616   1.554   1_655  S
C612        C615   1.541       .  S
C612       C1118   1.567       .  S
C613        C617   1.539       .  S
C613       C1795   1.549       .  S
C613        C618   1.543       .  S
C613       C1108   1.550       .  S
C614       C1788   1.528       .  S
C614        C622   1.373       .  A
C614        C617   1.383   1_655  A
C615        C626   1.381       .  A
C615       C1794   1.422   1_645  A
C616        C630   1.374       .  A
C616        C619   1.403       .  A
C617        C620   1.385       .  A
C618       C1791   1.420   1_455  A
C618        C624   1.368       .  A
C619       C1789   1.546   1_545  S
C619        C627   1.384       .  A
C620        N621   1.353   1_455  A
C620        H633   1.078       .  S
N621        C622   1.352       .  A
N621       C1131   1.433       .  S
C622        H623   1.083       .  S
C624        N625   1.351       .  A
C624        H634   1.082       .  S
N625       C1802   1.353   1_455  A
N625       N1847   1.398   1_455  S
C626       N1801   1.351       .  A
C626        H632   1.082       .  S
C627        N628   1.352       .  A
C627        H629   1.081       .  S
N628        C630   1.352       .  A
N628       C1098   1.433       .  S
C630        H631   1.082       .  S
C635        C637   1.539       .  S
C635        C639   1.544       .  S
C635       C1068   1.567       .  S
C636        C640   1.531       .  S
C636        C642   1.530       .  S
C636       C1061   1.585       .  S
C637        C645   1.397       .  A
C637        C640   1.377       .  A
C638        C649   1.365       .  A
C638        C641   1.438       .  A
C639        C653   1.383       .  A
C639        C642   1.378       .  A
C640        C643   1.384       .  A
C641        C647   1.392       .  A
C642        C650   1.384       .  A
C643        N644   1.347       .  A
C643        H656   1.083       .  S
N644        C645   1.352       .  A
N644       C1078   1.438       .  S
C645        H646   1.082       .  S
C647        N648   1.360       .  A
C647        H657   1.079       .  S
N648        C649   1.348       .  A
C649        H655   1.081       .  S
C650        N651   1.358       .  A
C650        H652   1.083       .  S
N651        C653   1.354       .  A
N651       C1091   1.446       .  S
C653        H654   1.079       .  S
C658       C1836   1.548       .  S
C658        C662   1.533       .  S
C658       C1041   1.549       .  S
C659        C663   1.544       .  S
C659        C665   1.531   1_655  S
C659       C1018   1.578   1_655  S
C660       C1834   1.551   1_545  S
C660        C668   1.385       .  A
C660        C663   1.396       .  A
C661        C672   1.363       .  A
C661       C1840   1.430   1_655  A
C662        C676   1.387   1_655  A
C662       C1841   1.380   1_655  A
C663        C666   1.374       .  A
C664       C1837   1.412   1_445  A
C664        C670   1.377       .  A
C665       C1838   1.380   1_445  A
C665       C1849   1.373   1_545  A
C666        N667   1.356       .  A
C666        H679   1.083       .  S
N667        C668   1.356       .  A
N667       C1048   1.441       .  S
C668        H669   1.080   1_545  S
C670        N671   1.352   1_455  A
C670        H680   1.082       .  S
N671       C1848   1.349   1_545  A
N671       N1801   1.395       .  S
C672       N1847   1.344       .  A
C672        H678   1.082       .  S
C673       C1841   1.375       .  A
C673        N674   1.349       .  A
C673        H675   1.083       .  S
N674        C676   1.353       .  A
N674       C1031   1.430       .  S
C676        H677   1.078   1_455  S
O681       Cr699   1.968       .  S
O681        C689   1.266       .  A
O682       Cr699   2.004       .  S
O682        C683   1.256       .  A
C683        O684   1.256       .  A
C683       C1161   1.482       .  S
O684       Cr700   1.998       .  S
O685       Cr700   2.020       .  S
O685        C686   1.271       .  A
C686        O687   1.257       .  A
C686       C1008   1.489       .  S
O687       Cr701   1.956       .  S
O688       Cr701   2.068       .  S
O688        C689   1.286       .  A
C689        C978   1.492       .  S
O690       Cr699   2.010       .  S
O690        C698   1.255       .  A
O691       Cr699   1.962       .  S
O691        C692   1.266       .  A
C692        O693   1.277       .  A
C692        C998   1.486       .  S
O693       Cr700   2.033       .  S
O694       Cr700   1.953       .  S
O694        C695   1.253       .  A
C695        O696   1.272       .  A
C695        C988   1.492       .  S
O696       Cr701   2.037       .  S
O697       Cr701   2.013       .  S
O697        C698   1.255       .  A
C698       C1058   1.508       .  S
Cr699       O702   1.761       .  S
Cr700       O702   1.775       .  S
Cr701       O702   1.773       .  S
O703       Cr721   1.978       .  S
O703        C711   1.259       .  A
O704       Cr721   1.985       .  S
O704        C705   1.262       .  A
C705        O706   1.273       .  A
C705       C1088   1.494       .  S
O706       Cr722   2.013       .  S
O707       Cr722   1.998       .  S
O707        C708   1.253       .  A
C708        O709   1.244       .  A
C708       C1011   1.483       .  S
O709       Cr723   1.961       .  S
O710       Cr723   2.051       .  S
O710        C711   1.277       .  A
C711        C958   1.518       .  S
O712       Cr721   1.975       .  S
O712        C720   1.252       .  A
O713       Cr721   1.990       .  S
O713        C714   1.259       .  A
C714        O715   1.257       .  A
C714       C1001   1.475       .  S
O715       Cr722   1.999       .  S
O716       Cr722   1.979       .  S
O716        C717   1.271       .  A
C717        O718   1.289       .  A
C717        C968   1.500       .  S
O718       Cr723   2.066       .  S
O719       Cr723   1.997       .  S
O719        C720   1.256       .  A
C720       C1138   1.486       .  S
Cr721       O724   1.782       .  S
Cr722       O724   1.792       .  S
Cr723       O724   1.791       .  S
O725       Cr743   1.999       .  S
O725        C733   1.267       .  A
O726       Cr743   1.945       .  S
O726        C727   1.249       .  A
C727        O728   1.264       .  A
C727       C1081   1.481       .  S
O728       Cr744   2.022       .  S
O729       Cr744   2.035       .  S
O729        C730   1.271       .  A
C730        O731   1.254       .  A
C730        C948   1.529       .  S
O731       Cr745   1.993       .  S
O732       Cr745   2.025       .  S
O732        C733   1.268       .  A
C733        C981   1.498       .  S
O734       Cr743   1.983       .  S
O734        C742   1.254       .  A
O735       Cr743   1.988       .  S
O735        C736   1.260       .  A
C736        O737   1.270       .  A
C736        C941   1.491       .  S
O737       Cr744   2.015       .  S
O738       Cr744   2.005       .  S
O738        C739   1.274       .  A
C739        O740   1.275       .  A
C739        C928   1.480       .  S
O740       Cr745   2.008       .  S
O741       Cr745   2.037       .  S
O741        C742   1.265       .  A
C742       C1148   1.488       .  S
Cr743       O746   1.753       .  S
Cr744       O746   1.776       .  S
Cr745       O746   1.779       .  S
O747       Cr765   2.020       .  S
O747        C755   1.272       .  A
O748       Cr765   1.940       .  S
O748        C749   1.250       .  A
C749        O750   1.269       .  A
C749       C1171   1.483       .  S
O750       Cr766   2.020       .  S
O751       Cr766   2.041       .  S
O751        C752   1.265       .  A
C752        O753   1.244       .  A
C752        C951   1.521       .  S
O753       Cr767   1.979       .  S
O754       Cr767   2.048       .  S
O754        C755   1.274       .  A
C755        C961   1.530       .  S
O756       Cr765   1.976       .  S
O756        C764   1.258       .  A
O757       Cr765   2.013       .  S
O757        C758   1.267       .  A
C758        O759   1.270       .  A
C758        C938   1.505       .  S
O759       Cr766   2.010       .  S
O760       Cr766   2.039       .  S
O760        C761   1.283       .  A
C761        O762   1.281       .  A
C761        C918   1.501       .  S
O762       Cr767   2.013       .  S
O763       Cr767   2.051       .  S
O763        C764   1.264       .  A
C764       C1071   1.510       .  S
Cr765       O768   1.755       .  S
Cr766       O768   1.771       .  S
Cr767       O768   1.783       .  S
O769       Cr787   2.009       .  S
O769        C777   1.263       .  A
O770       Cr787   1.947       .  S
O770        C771   1.253       .  A
C771        O772   1.265       .  A
C771       C1028   1.466       .  S
O772       Cr788   2.004       .  S
O773       Cr788   2.029       .  S
O773        C774   1.263       .  A
C774        O775   1.252       .  A
C774        C898   1.503       .  S
O775       Cr789   1.992       .  S
O776       Cr789   2.053       .  S
O776        C777   1.272       .  A
C777        C891   1.537       .  S
O778       Cr787   1.980       .  S
O778        C786   1.257       .  A
O779       Cr787   1.996       .  S
O779        C780   1.259       .  A
C780        O781   1.272       .  A
C780        C908   1.514       .  S
O781       Cr788   2.033       .  S
O782       Cr788   2.024       .  S
O782        C783   1.280       .  A
C783        O784   1.275       .  A
C783        C931   1.487       .  S
O784       Cr789   2.000       .  S
O785       Cr789   2.036       .  S
O785        C786   1.268       .  A
C786       C1111   1.493       .  S
Cr787       O790   1.765       .  S
Cr788       O790   1.784       .  S
Cr789       O790   1.787       .  S
O791       Cr809   1.999       .  S
O791        C799   1.259       .  A
O792       Cr809   1.962       .  S
O792        C793   1.251       .  A
C793        O794   1.259       .  A
C793       C1101   1.471       .  S
O794       Cr810   1.993       .  S
O795       Cr810   2.032       .  S
O795        C796   1.273       .  A
C796        O797   1.260       .  A
C796        C901   1.509       .  S
O797       Cr811   2.001       .  S
O798       Cr811   2.033       .  S
O798        C799   1.269       .  A
C799        C878   1.501       .  S
O800       Cr809   1.977       .  S
O800        C808   1.254       .  A
O801       Cr809   1.992       .  S
O801        C802   1.260       .  A
C802        O803   1.274       .  A
C802        C911   1.501       .  S
O803       Cr810   2.032       .  S
O804       Cr810   1.987       .  S
O804        C805   1.266       .  A
C805        O806   1.279       .  A
C805        C921   1.493       .  S
O806       Cr811   2.035       .  S
O807       Cr811   2.036       .  S
O807        C808   1.264       .  A
C808       C1021   1.492       .  S
Cr809       O812   1.764       .  S
Cr810       O812   1.779       .  S
Cr811       O812   1.781       .  S
O813       Cr831   1.990       .  S
O813        C821   1.261       .  A
O814       Cr831   1.989       .  S
O814        C815   1.256       .  A
C815        O816   1.260       .  A
C815       C1038   1.491       .  S
O816       Cr832   2.022       .  S
O817       Cr832   2.008       .  S
O817        C818   1.283       .  A
C818        O819   1.279       .  A
C818        C991   1.480       .  S
O819       Cr833   2.010       .  S
O820       Cr833   2.020       .  S
O820        C821   1.269       .  A
C821        C868   1.503       .  S
O822       Cr831   1.947       .  S
O822        C830   1.254       .  A
O823       Cr831   2.008       .  S
O823        C824   1.265       .  A
C824        O825   1.278       .  A
C824        C888   1.540       .  S
O825       Cr832   2.057       .  S
O826       Cr832   1.964       .  S
O826        C827   1.243       .  A
C827        O828   1.264       .  A
C827        C858   1.511       .  S
O828       Cr833   2.044       .  S
O829       Cr833   2.003       .  S
O829        C830   1.266       .  A
C830       C1128   1.474       .  S
Cr831       O834   1.761       .  S
Cr832       O834   1.774       .  S
Cr833       O834   1.779       .  S
O835       Cr853   2.017       .  S
O835        C843   1.272       .  A
O836       Cr853   1.973       .  S
O836        C837   1.259       .  A
C837        O838   1.257       .  A
C837       C1051   1.481       .  S
O838       Cr854   1.986       .  S
O839       Cr854   2.034       .  S
O839        C840   1.269       .  A
C840        O841   1.254       .  A
C840        C861   1.520       .  S
O841       Cr855   1.993       .  S
O842       Cr855   2.045       .  S
O842        C843   1.278       .  A
C843        C881   1.517       .  S
O844       Cr853   1.994       .  S
O844        C852   1.253       .  A
O845       Cr853   1.973       .  S
O845        C846   1.258       .  A
C846        O847   1.274       .  A
C846        C871   1.494       .  S
O847       Cr854   2.020       .  S
O848       Cr854   2.006       .  S
O848        C849   1.269       .  A
C849        O850   1.280       .  A
C849        C971   1.502       .  S
O850       Cr855   2.039       .  S
O851       Cr855   2.018       .  S
O851        C852   1.259       .  A
C852       C1121   1.493       .  S
Cr853       O856   1.772       .  S
Cr854       O856   1.787       .  S
Cr855       O856   1.786       .  S
C857        C858   1.413       .  A
C857        C862   1.424       .  A
C857       Br864   1.931       .  S
C858        C859   1.423       .  A
C859        C860   1.410       .  A
C859       Br866   1.938       .  S
C860        C861   1.410       .  A
C860       Br865   1.923       .  S
C861        C862   1.428       .  A
C862       Br863   1.928       .  S
C867        C868   1.414       .  A
C867       C2048   1.413       .  A
C867       Br874   1.928       .  S
C868        C869   1.416       .  A
C869       C2046   1.417       .  A
C869       Br876   1.921       .  S
C870       C2045   1.416   1_545  A
C870        C871   1.413       .  A
C870       Br875   1.930       .  S
C871        C872   1.416       .  A
C872       C2043   1.412   1_545  A
C872       Br873   1.932       .  S
C877        C878   1.417       .  A
C877        C882   1.426   1_455  A
C877       Br884   1.925       .  S
C878        C879   1.407   1_455  A
C879        C880   1.415       .  A
C879       Br886   1.930       .  S
C880        C881   1.415       .  A
C880       Br885   1.908       .  S
C881        C882   1.413       .  A
C882       Br883   1.921       .  S
C887        C888   1.427       .  A
C887        C892   1.438   1_655  A
C887       Br894   1.927       .  S
C888        C889   1.426       .  A
C889        C890   1.411   1_655  A
C889       Br896   1.939       .  S
C890        C891   1.422       .  A
C890       Br895   1.939       .  S
C891        C892   1.424       .  A
C892       Br893   1.929       .  S
C897        C898   1.409       .  A
C897        C902   1.419       .  A
C897       Br904   1.931       .  S
C898        C899   1.414       .  A
C899        C900   1.417       .  A
C899       Br906   1.921       .  S
C900        C901   1.412       .  A
C900       Br905   1.930       .  S
C901        C902   1.425       .  A
C902       Br903   1.926       .  S
C907        C908   1.416       .  A
C907       C2088   1.419       .  A
C907       Br914   1.926       .  S
C908        C909   1.420       .  A
C909       C2086   1.421       .  A
C909       Br916   1.920       .  S
C910       C2085   1.417       .  A
C910        C911   1.411       .  A
C910       Br915   1.925       .  S
C911        C912   1.414       .  A
C912       C2083   1.418   1_545  A
C912       Br913   1.920       .  S
C917        C918   1.413       .  A
C917        C922   1.421       .  A
C917       Br924   1.925       .  S
C918        C919   1.411       .  A
C919        C920   1.410       .  A
C919       Br926   1.908       .  S
C920        C921   1.407       .  A
C920       Br925   1.931       .  S
C921        C922   1.410       .  A
C922       Br923   1.913       .  S
C927        C928   1.402       .  A
C927        C932   1.402       .  A
C927       Br934   1.922       .  S
C928        C929   1.411       .  A
C929        C930   1.416       .  A
C929       Br936   1.914       .  S
C930        C931   1.407       .  A
C930       Br935   1.920       .  S
C931        C932   1.404       .  A
C932       Br933   1.901       .  S
C937        C938   1.415       .  A
C937        C942   1.414       .  A
C937       Br944   1.912       .  S
C938        C939   1.417       .  A
C939        C940   1.415       .  A
C939       Br946   1.924       .  S
C940        C941   1.411       .  A
C940       Br945   1.927       .  S
C941        C942   1.409       .  A
C942       Br943   1.930       .  S
C947        C948   1.420       .  A
C947       C2128   1.418       .  A
C947       Br954   1.935       .  S
C948        C949   1.438       .  A
C949       C2126   1.420       .  A
C949       Br956   1.936       .  S
C950       C2125   1.421   1_545  A
C950        C951   1.415       .  A
C950       Br955   1.937       .  S
C951        C952   1.431       .  A
C952       C2123   1.417   1_545  A
C952       Br953   1.944       .  S
C957        C958   1.421       .  A
C957        C962   1.427       .  A
C957       Br964   1.919       .  S
C958        C959   1.406       .  A
C959        C960   1.423       .  A
C959       Br966   1.924       .  S
C960        C961   1.421       .  A
C960       Br965   1.906       .  S
C961        C962   1.412       .  A
C962       Br963   1.924       .  S
C967        C968   1.410       .  A
C967        C972   1.418       .  A
C967       Br974   1.907       .  S
C968        C969   1.405       .  A
C969        C970   1.414       .  A
C969       Br976   1.924       .  S
C970        C971   1.412       .  A
C970       Br975   1.903       .  S
C971        C972   1.407       .  A
C972       Br973   1.919       .  S
C977        C978   1.407       .  A
C977        C982   1.410       .  A
C977       Br984   1.925       .  S
C978        C979   1.412       .  A
C979        C980   1.418       .  A
C979       Br986   1.922       .  S
C980        C981   1.408       .  A
C980       Br985   1.920       .  S
C981        C982   1.410       .  A
C982       Br983   1.915       .  S
C987        C988   1.408       .  A
C987        C992   1.411       .  A
C987       Br994   1.922       .  S
C988        C989   1.417       .  A
C989        C990   1.409       .  A
C989       Br996   1.917       .  S
C990        C991   1.403       .  A
C990       Br995   1.931       .  S
C991        C992   1.407       .  A
C992       Br993   1.908       .  S
C997        C998   1.407       .  A
C997       C1002   1.399       .  A
C997      Br1004   1.930       .  S
C998        C999   1.406       .  A
C999       C1000   1.408       .  A
C999      Br1006   1.924       .  S
C1000      C1001   1.408       .  A
C1000     Br1005   1.917       .  S
C1001      C1002   1.413       .  A
C1002     Br1003   1.921       .  S
C1007      C1008   1.420       .  A
C1007      C2188   1.407       .  A
C1007     Br1014   1.933       .  S
C1008      C1009   1.413       .  A
C1009      C2186   1.412       .  A
C1009     Br1016   1.933       .  S
C1010      C2185   1.411       .  A
C1010      C1011   1.416   1_565  A
C1010     Br1015   1.933   1_565  S
C1011      C1012   1.408       .  A
C1012      C2183   1.407   1_545  A
C1012     Br1013   1.933       .  S
C1017      C1018   1.434       .  A
C1017      C1022   1.428       .  A
C1017     Br1024   1.919       .  S
C1018      C1019   1.444       .  A
C1019      C1020   1.403       .  A
C1019     Br1026   1.934   1_455  S
C1020      C1021   1.400       .  A
C1020     Br1025   1.944       .  S
C1021      C1022   1.407       .  A
C1022     Br1023   1.930       .  S
C1027      C1028   1.408       .  A
C1027      C1032   1.410       .  A
C1027     Br1034   1.926       .  S
C1028      C1029   1.411       .  A
C1029      C1030   1.387       .  A
C1029     Br1036   1.933       .  S
C1030      C1031   1.400       .  A
C1030     Br1035   1.919       .  S
C1031      C1032   1.411       .  A
C1032     Br1033   1.921       .  S
C1037      C1038   1.411       .  A
C1037      C1042   1.408       .  A
C1037     Br1044   1.916       .  S
C1038      C1039   1.418       .  A
C1039      C1040   1.414       .  A
C1039     Br1046   1.927       .  S
C1040      C1041   1.407       .  A
C1040     Br1045   1.923       .  S
C1041      C1042   1.404       .  A
C1042     Br2219   1.927       .  S
Br1043     C2218   1.927       .  S
C1047      C1048   1.407       .  A
C1047      C1052   1.411       .  A
C1047     Br1054   1.925       .  S
C1048      C1049   1.414       .  A
C1049      C1050   1.400       .  A
C1049     Br1056   1.941   1_545  S
C1050      C1051   1.413       .  A
C1050     Br1055   1.930       .  S
C1051      C1052   1.413       .  A
C1052     Br1053   1.922       .  S
C1057      C1058   1.416       .  A
C1057      C1062   1.429       .  A
C1057     Br1064   1.933       .  S
C1058      C1059   1.408       .  A
C1059      C1060   1.411       .  A
C1059     Br1066   1.959       .  S
C1060      C1061   1.456       .  A
C1060     Br1065   1.950       .  S
C1061      C1062   1.426       .  A
C1062     Br1063   1.914       .  S
C1067      C1068   1.438       .  A
C1067      C1072   1.440       .  A
C1067     Br1074   1.927       .  S
C1068      C1069   1.430       .  A
C1069      C1070   1.386       .  A
C1069     Br1076   1.938       .  S
C1070      C1071   1.391       .  A
C1070     Br1075   1.907       .  S
C1071      C1072   1.418       .  A
C1072     Br1073   1.917       .  S
C1077      C1078   1.406       .  A
C1077      C1082   1.393       .  A
C1077     Br1084   1.919       .  S
C1078      C1079   1.406       .  A
C1079      C1080   1.416       .  A
C1079     Br1086   1.922       .  S
C1080      C1081   1.415       .  A
C1080     Br1085   1.924       .  S
C1081      C1082   1.417       .  A
C1082     Br1083   1.945       .  S
C1087      C1088   1.415       .  A
C1087      C1092   1.417       .  A
C1087     Br1094   1.928       .  S
C1088      C1089   1.422       .  A
C1089      C1090   1.397       .  A
C1089     Br1096   1.931       .  S
C1090      C1091   1.414       .  A
C1090     Br1095   1.945       .  S
C1091      C1092   1.411       .  A
C1092     Br1093   1.925       .  S
C1097      C1098   1.412       .  A
C1097      C1102   1.399       .  A
C1097     Br1104   1.944       .  S
C1098      C1099   1.405       .  A
C1099      C1100   1.407       .  A
C1099     Br1106   1.923       .  S
C1100      C1101   1.410       .  A
C1100     Br1105   1.928       .  S
C1101      C1102   1.417       .  A
C1102     Br1103   1.936       .  S
C1107      C1108   1.403       .  A
C1107      C1112   1.409       .  A
C1107     Br1114   1.927       .  S
C1108      C1109   1.408       .  A
C1109      C1110   1.415       .  A
C1109     Br1116   1.922       .  S
C1110      C1111   1.418       .  A
C1110     Br1115   1.927       .  S
C1111      C1112   1.414       .  A
C1112     Br1113   1.916       .  S
C1117      C1118   1.424       .  A
C1117      C1122   1.390       .  A
C1117     Br1124   1.922   1_655  S
C1118      C1119   1.435       .  A
C1119      C1120   1.432       .  A
C1119     Br1126   1.926       .  S
C1120      C1121   1.413       .  A
C1120     Br1125   1.926       .  S
C1121      C1122   1.393       .  A
C1122     Br1123   1.919       .  S
C1127      C1128   1.408       .  A
C1127      C1132   1.412       .  A
C1127     Br1134   1.928       .  S
C1128      C1129   1.415       .  A
C1129      C1130   1.391       .  A
C1129     Br1136   1.930       .  S
C1130      C1131   1.401       .  A
C1130     Br1135   1.927       .  S
C1131      C1132   1.414       .  A
C1132     Br1133   1.921       .  S
C1137      C1138   1.411       .  A
C1137      C1142   1.396       .  A
C1137     Br1144   1.916       .  S
C1138      C1139   1.417       .  A
C1139      C1140   1.421       .  A
C1139     Br1146   1.925       .  S
C1140      C1141   1.417       .  A
C1140     Br1145   1.924       .  S
C1141      C1142   1.395       .  A
C1142     Br1143   1.922       .  S
C1147      C1148   1.394       .  A
C1147      C1152   1.386       .  A
C1147     Br1154   1.919       .  S
C1148      C1149   1.414       .  A
C1149      C1150   1.430       .  A
C1149     Br1156   1.924       .  S
C1150      C1151   1.427       .  A
C1150     Br1155   1.923       .  S
C1151      C1152   1.430       .  A
C1152     Br1153   1.950       .  S
C1157      C1158   1.412       .  A
C1157      C1162   1.408       .  A
C1157     Br1164   1.928       .  S
C1158      C1159   1.416       .  A
C1159      C1160   1.405       .  A
C1159     Br1166   1.931       .  S
C1160      C1161   1.403       .  A
C1160     Br1165   1.906       .  S
C1161      C1162   1.408       .  A
C1162     Br1163   1.910       .  S
C1167      C1168   1.404       .  A
C1167      C1172   1.409       .  A
C1167     Br1174   1.925       .  S
C1168      C1169   1.394       .  A
C1169      C1170   1.397       .  A
C1169     Br1176   1.931       .  S
C1170      C1171   1.425       .  A
C1170     Br1175   1.939       .  S
C1171      C1172   1.416       .  A
C1172     Br1173   1.929       .  S
C1177      C1179   1.558       .  S
C1177      C1181   1.533       .  S
C1177      C1180   1.559       .  S
C1177      C1729   1.553       .  S
C1178      C1182   1.535       .  S
C1178      C1184   1.522       .  S
C1178      C1183   1.554       .  S
C1178      C1739   1.557       .  S
C1179      C1187   1.387       .  A
C1179      C1182   1.379       .  A
C1180      C1191   1.384       .  A
C1180      C1183   1.440       .  A
C1181      C1195   1.385       .  A
C1181      C1184   1.377       .  A
C1182      C1185   1.371       .  A
C1183      C1189   1.386       .  A
C1184      C1192   1.376       .  A
C1185      N1186   1.355       .  A
C1185      H1198   1.075       .  S
N1186      C1187   1.369       .  A
N1186      C1746   1.460       .  S
C1187      H1188   1.070       .  S
C1189      N1190   1.353       .  A
C1189      H1199   1.083       .  S
N1190      C1191   1.352       .  A
N1190      N1236   1.407       .  S
C1191      H1197   1.081       .  S
C1192      N1193   1.348       .  A
C1192      H1194   1.083       .  S
N1193      C1195   1.351       .  A
N1193      C1756   1.426       .  S
C1195      H1196   1.079       .  S
C1200      C1204   1.552   1_655  S
C1200      C1203   1.548       .  S
C1200      C1706   1.569       .  S
C1201      C1205   1.532       .  S
C1201      C1206   1.531       .  S
C1201      C1696   1.542       .  S
C1202      C1210   1.374   1_545  A
C1202      C1205   1.385   1_645  A
C1203      C1214   1.387       .  A
C1204      C1218   1.375       .  A
C1204      C1207   1.398       .  A
C1205      C1208   1.380   1_455  A
C1206      C1212   1.364       .  A
C1207      C1215   1.384       .  A
C1208      N1209   1.352       .  A
C1208      H1221   1.080   1_655  S
N1209      C1210   1.351       .  A
N1209      C1719   1.430       .  S
C1210      H1211   1.082   1_565  S
C1212      N1213   1.348   1_465  A
C1212      H1222   1.082       .  S
C1214      H1220   1.082       .  S
C1215      N1216   1.353       .  A
C1215      H1217   1.080       .  S
N1216      C1218   1.354       .  A
N1216      C1686   1.435       .  S
C1218      H1219   1.082       .  S
C1223      C1225   1.536       .  S
C1223      C1227   1.542       .  S
C1223      C1814   1.544       .  S
C1223      C1656   1.565       .  S
C1224      C1228   1.534       .  S
C1224      C1230   1.525       .  S
C1224      C1817   1.589       .  S
C1224      C1649   1.583       .  S
C1225      C1233   1.394       .  A
C1225      C1228   1.378       .  A
C1226      C1811   1.542       .  S
C1226      C1237   1.366   1_556  A
C1226      C1229   1.440       .  A
C1227      C1241   1.383       .  A
C1227      C1230   1.379       .  A
C1228      C1231   1.383       .  A
C1229      C1812   1.594       .  S
C1229      C1235   1.398   1_556  A
C1230      C1238   1.380       .  A
C1231      N1232   1.347       .  A
C1231      H1244   1.082       .  S
N1232      C1233   1.352       .  A
N1232      C1666   1.437       .  S
C1233      H1234   1.082       .  S
C1235      N1236   1.364       .  A
C1235      H1245   1.080       .  S
N1236      C1237   1.348       .  A
C1237      H1243   1.081       .  S
C1238      N1239   1.356       .  A
C1238      H1240   1.083       .  S
N1239      C1241   1.352       .  A
N1239      C1679   1.440       .  S
C1241      H1242   1.079       .  S
C1246      C1250   1.529       .  S
C1246      C1837   1.532       .  S
C1246      C1629   1.546       .  S
C1247      C1251   1.546       .  S
C1247      C1253   1.530   1_655  S
C1247      C1840   1.559   1_655  S
C1247      C1606   1.583   1_655  S
C1248      C1256   1.384       .  A
C1248      C1251   1.397       .  A
C1249      C1834   1.536       .  S
C1249      C1260   1.361   1_556  A
C1250      C1264   1.378       .  A
C1251      C1254   1.375       .  A
C1252      C1835   1.557   1_455  S
C1252      C1258   1.391   1_556  A
C1254      N1255   1.356       .  A
C1254      H1267   1.083       .  S
N1255      C1256   1.355       .  A
N1255      C1636   1.440       .  S
C1256      H1257   1.079       .  S
C1258      N1259   1.356   1_455  A
C1258      H1268   1.081       .  S
C1260      H1266   1.082       .  S
C1261      N1262   1.347   1_545  A
C1261      H1263   1.081       .  S
N1262      C1264   1.350   1_455  A
N1262      C1619   1.423       .  S
C1264      H1265   1.080       .  S
O1269     Cr1287   1.966       .  S
O1269      C1277   1.268       .  A
O1270     Cr1287   2.006       .  S
O1270      C1271   1.256       .  A
C1271      O1272   1.256       .  A
C1271      C1749   1.486       .  S
O1272     Cr1288   2.001       .  S
O1273     Cr1288   2.014       .  S
O1273      C1274   1.269       .  A
C1274      O1275   1.259       .  A
C1274      C1596   1.492       .  S
O1275     Cr1289   1.965       .  S
O1276     Cr1289   2.077       .  S
O1276      C1277   1.289       .  A
C1277      C1566   1.495       .  S
O1278     Cr1287   2.006       .  S
O1278      C1286   1.252       .  A
O1279     Cr1287   1.970       .  S
O1279      C1280   1.268       .  A
C1280      O1281   1.277       .  A
C1280      C1586   1.489       .  S
O1281     Cr1288   2.030       .  S
O1282     Cr1288   1.954       .  S
O1282      C1283   1.254       .  A
C1283      O1284   1.272       .  A
C1283      C1576   1.494       .  S
O1284     Cr1289   2.040       .  S
O1285     Cr1289   2.021       .  S
O1285      C1286   1.254       .  A
C1286      C1646   1.510       .  S
Cr1287     O1290   1.763       .  S
Cr1288     O1290   1.773       .  S
Cr1289     O1290   1.776       .  S
O1291     Cr1309   1.981       .  S
O1291      C1299   1.259       .  A
O1292     Cr1309   1.981       .  S
O1292      C1293   1.259       .  A
C1293      O1294   1.271       .  A
C1293      C1676   1.488       .  S
O1294     Cr1310   2.007       .  S
O1295     Cr1310   1.997       .  S
O1295      C1296   1.252       .  A
C1296      O1297   1.245       .  A
C1296      C1599   1.483       .  S
O1297     Cr1311   1.965       .  S
O1298     Cr1311   2.057       .  S
O1298      C1299   1.278       .  A
C1299      C1546   1.522       .  S
O1300     Cr1309   1.983       .  S
O1300      C1308   1.254       .  A
O1301     Cr1309   1.994       .  S
O1301      C1302   1.262       .  A
C1302      O1303   1.258       .  A
C1302      C1589   1.479       .  S
O1303     Cr1310   2.002       .  S
O1304     Cr1310   1.971       .  S
O1304      C1305   1.269       .  A
C1305      O1306   1.289       .  A
C1305      C1556   1.498       .  S
O1306     Cr1311   2.068       .  S
O1307     Cr1311   2.006       .  S
O1307      C1308   1.259       .  A
C1308      C1726   1.494       .  S
Cr1309     O1312   1.781       .  S
Cr1310     O1312   1.793       .  S
Cr1311     O1312   1.790       .  S
O1313     Cr1331   2.003       .  S
O1313      C1321   1.269       .  A
O1314     Cr1331   1.948       .  S
O1314      C1315   1.249       .  A
C1315      O1316   1.262       .  A
C1315      C1669   1.480       .  S
O1316     Cr1332   2.016       .  S
O1317     Cr1332   2.028       .  S
O1317      C1318   1.268       .  A
C1318      O1319   1.252       .  A
C1318      C1536   1.518       .  S
O1319     Cr1333   1.993       .  S
O1320     Cr1333   2.021       .  S
O1320      C1321   1.267       .  A
C1321      C1569   1.497       .  S
O1322     Cr1331   1.984       .  S
O1322      C1330   1.255       .  A
O1323     Cr1331   1.997       .  S
O1323      C1324   1.263       .  A
C1324      O1325   1.268       .  A
C1324      C1529   1.490       .  S
O1325     Cr1332   2.008       .  S
O1326     Cr1332   2.006       .  S
O1326      C1327   1.274       .  A
C1327      O1328   1.276       .  A
C1327      C1516   1.479       .  S
O1328     Cr1333   2.006       .  S
O1329     Cr1333   2.039       .  S
O1329      C1330   1.265       .  A
C1330      C1736   1.491       .  S
Cr1331     O1334   1.753       .  S
Cr1332     O1334   1.772       .  S
Cr1333     O1334   1.780       .  S
O1335     Cr1353   2.017       .  S
O1335      C1343   1.271       .  A
O1336     Cr1353   1.945       .  S
O1336      C1337   1.253       .  A
C1337      O1338   1.269       .  A
C1337      C1759   1.484       .  S
O1338     Cr1354   2.016       .  S
O1339     Cr1354   2.050       .  S
O1339      C1340   1.267       .  A
C1340      O1341   1.240       .  A
C1340      C1539   1.526       .  S
O1341     Cr1355   1.972       .  S
O1342     Cr1355   2.049       .  S
O1342      C1343   1.276       .  A
C1343      C1549   1.528       .  S
O1344     Cr1353   1.979       .  S
O1344      C1352   1.258       .  A
O1345     Cr1353   2.001       .  S
O1345      C1346   1.264       .  A
C1346      O1347   1.270       .  A
C1346      C1526   1.501       .  S
O1347     Cr1354   2.010       .  S
O1348     Cr1354   2.035       .  S
O1348      C1349   1.283       .  A
C1349      O1350   1.281       .  A
C1349      C1506   1.498       .  S
O1350     Cr1355   2.012       .  S
O1351     Cr1355   2.043       .  S
O1351      C1352   1.261       .  A
C1352      C1659   1.507       .  S
Cr1353     O1356   1.753       .  S
Cr1354     O1356   1.772       .  S
Cr1355     O1356   1.780       .  S
O1357     Cr1375   2.008       .  S
O1357      C1365   1.264       .  A
O1358     Cr1375   1.941       .  S
O1358      C1359   1.251       .  A
C1359      O1360   1.266       .  A
C1359      C1616   1.464       .  S
O1360     Cr1376   2.006       .  S
O1361     Cr1376   2.031       .  S
O1361      C1362   1.264       .  A
C1362      O1363   1.252       .  A
C1362      C1486   1.507       .  S
O1363     Cr1377   1.991       .  S
O1364     Cr1377   2.054       .  S
O1364      C1365   1.275       .  A
C1365      C1479   1.538       .  S
O1366     Cr1375   1.974       .  S
O1366      C1374   1.254       .  A
O1367     Cr1375   1.986       .  S
O1367      C1368   1.257       .  A
C1368      O1369   1.268       .  A
C1368      C1496   1.503       .  S
O1369     Cr1376   2.016       .  S
O1370     Cr1376   2.023       .  S
O1370      C1371   1.280       .  A
C1371      O1372   1.276       .  A
C1371      C1519   1.491       .  S
O1372     Cr1377   2.006       .  S
O1373     Cr1377   2.026       .  S
O1373      C1374   1.264       .  A
C1374      C1699   1.485       .  S
Cr1375     O1378   1.761       .  S
Cr1376     O1378   1.780       .  S
Cr1377     O1378   1.781       .  S
O1379     Cr1397   1.998       .  S
O1379      C1387   1.261       .  A
O1380     Cr1397   1.965       .  S
O1380      C1381   1.253       .  A
C1381      O1382   1.260       .  A
C1381      C1689   1.476       .  S
O1382     Cr1398   1.999       .  S
O1383     Cr1398   2.038       .  S
O1383      C1384   1.274       .  A
C1384      O1385   1.260       .  A
C1384      C1489   1.514       .  S
O1385     Cr1399   2.003       .  S
O1386     Cr1399   2.023       .  S
O1386      C1387   1.267       .  A
C1387      C1466   1.494       .  S
O1388     Cr1397   1.979       .  S
O1388      C1396   1.253       .  A
O1389     Cr1397   1.986       .  S
O1389      C1390   1.258       .  A
C1390      O1391   1.275       .  A
C1390      C1499   1.503       .  S
O1391     Cr1398   2.037       .  S
O1392     Cr1398   1.991       .  S
O1392      C1393   1.268       .  A
C1393      O1394   1.276       .  A
C1393      C1509   1.486       .  S
O1394     Cr1399   2.023       .  S
O1395     Cr1399   2.035       .  S
O1395      C1396   1.264       .  A
C1396      C1609   1.494       .  S
Cr1397     O1400   1.763       .  S
Cr1398     O1400   1.781       .  S
Cr1399     O1400   1.783       .  S
O1401     Cr1419   1.976       .  S
O1401      C1409   1.257       .  A
O1402     Cr1419   1.980       .  S
O1402      C1403   1.253       .  A
C1403      O1404   1.262       .  A
C1403      C1626   1.491       .  S
O1404     Cr1420   2.028       .  S
O1405     Cr1420   2.012       .  S
O1405      C1406   1.283       .  A
C1406      O1407   1.278       .  A
C1406      C1579   1.485       .  S
O1407     Cr1421   2.012       .  S
O1408     Cr1421   2.018       .  S
O1408      C1409   1.268       .  A
C1409      C1456   1.496       .  S
O1410     Cr1419   1.941       .  S
O1410      C1418   1.251       .  A
O1411     Cr1419   2.004       .  S
O1411      C1412   1.263       .  A
C1412      O1413   1.278       .  A
C1412      C1476   1.539       .  S
O1413     Cr1420   2.058       .  S
O1414     Cr1420   1.972       .  S
O1414      C1415   1.246       .  A
C1415      O1416   1.268       .  A
C1415      C1446   1.520       .  S
O1416     Cr1421   2.048       .  S
O1417     Cr1421   2.009       .  S
O1417      C1418   1.269       .  A
C1418      C1716   1.473       .  S
Cr1419     O1422   1.765       .  S
Cr1420     O1422   1.773       .  S
Cr1421     O1422   1.781       .  S
O1423     Cr1441   2.007       .  S
O1423      C1431   1.270       .  A
O1424     Cr1441   1.972       .  S
O1424      C1425   1.257       .  A
C1425      O1426   1.257       .  A
C1425      C1639   1.479       .  S
O1426     Cr1442   1.988       .  S
O1427     Cr1442   2.033       .  S
O1427      C1428   1.270       .  A
C1428      O1429   1.259       .  A
C1428      C1449   1.526       .  S
O1429     Cr1443   2.004       .  S
O1430     Cr1443   2.035       .  S
O1430      C1431   1.275       .  A
C1431      C1469   1.507       .  S
O1432     Cr1441   1.991       .  S
O1432      C1440   1.254       .  A
O1433     Cr1441   1.977       .  S
O1433      C1434   1.259       .  A
C1434      O1435   1.275       .  A
C1434      C1459   1.497       .  S
O1435     Cr1442   2.024       .  S
O1436     Cr1442   2.000       .  S
O1436      C1437   1.267       .  A
C1437      O1438   1.278       .  A
C1437      C1559   1.497       .  S
O1438     Cr1443   2.036       .  S
O1439     Cr1443   2.025       .  S
O1439      C1440   1.260       .  A
C1440      C1709   1.495       .  S
Cr1441     O1444   1.771       .  S
Cr1442     O1444   1.788       .  S
Cr1443     O1444   1.789       .  S
C1445      C1446   1.416       .  A
C1445      C1450   1.427       .  A
C1445     Br1452   1.930       .  S
C1446      C1447   1.425       .  A
C1447      C1448   1.413       .  A
C1447     Br1454   1.938       .  S
C1448      C1449   1.411       .  A
C1448     Br1453   1.924       .  S
C1449      C1450   1.427       .  A
C1450     Br1451   1.929       .  S
C1455      C1456   1.414       .  A
C1455     Br1462   1.929       .  S
C1456      C1457   1.414       .  A
C1457     Br1464   1.923       .  S
C1458      C1459   1.412       .  A
C1458     Br1463   1.931       .  S
C1459      C1460   1.416       .  A
C1460     Br1461   1.933       .  S
C1465      C1466   1.416       .  A
C1465      C1470   1.423   1_455  A
C1465     Br1472   1.925       .  S
C1466      C1467   1.406   1_455  A
C1467      C1468   1.411       .  A
C1467     Br1474   1.930       .  S
C1468      C1469   1.412       .  A
C1468     Br1473   1.911       .  S
C1469      C1470   1.412       .  A
C1470     Br1471   1.923       .  S
C1475      C1476   1.425       .  A
C1475      C1480   1.437   1_655  A
C1475     Br1482   1.927       .  S
C1476      C1477   1.426       .  A
C1477      C1478   1.412   1_655  A
C1477     Br1484   1.943       .  S
C1478      C1479   1.424       .  A
C1478     Br1483   1.940       .  S
C1479      C1480   1.424       .  A
C1480     Br1481   1.928       .  S
C1485      C1486   1.409       .  A
C1485      C1490   1.420       .  A
C1485     Br1492   1.931       .  S
C1486      C1487   1.416       .  A
C1487      C1488   1.419       .  A
C1487     Br1494   1.923       .  S
C1488      C1489   1.413       .  A
C1488     Br1493   1.930       .  S
C1489      C1490   1.427       .  A
C1490     Br1491   1.928       .  S
C1495      C1496   1.415       .  A
C1495     Br1502   1.930       .  S
C1496      C1497   1.417   1_565  A
C1497     Br1504   1.927       .  S
C1498      C1499   1.411       .  A
C1498     Br1503   1.928       .  S
C1499      C1500   1.414       .  A
C1500     Br1501   1.923       .  S
C1505      C1506   1.412       .  A
C1505      C1510   1.418       .  A
C1505     Br1512   1.923       .  S
C1506      C1507   1.412       .  A
C1507      C1508   1.409       .  A
C1507     Br1514   1.907       .  S
C1508      C1509   1.404       .  A
C1508     Br1513   1.931       .  S
C1509      C1510   1.408       .  A
C1510     Br1511   1.914       .  S
C1515      C1516   1.404       .  A
C1515      C1520   1.405       .  A
C1515     Br1522   1.931       .  S
C1516      C1517   1.410       .  A
C1517      C1518   1.415       .  A
C1517     Br1524   1.917       .  S
C1518      C1519   1.407       .  A
C1518     Br1523   1.920       .  S
C1519      C1520   1.410       .  A
C1520     Br1521   1.909       .  S
C1525      C1526   1.414       .  A
C1525      C1530   1.411       .  A
C1525     Br1532   1.913       .  S
C1526      C1527   1.417       .  A
C1527      C1528   1.415       .  A
C1527     Br1534   1.926       .  S
C1528      C1529   1.410       .  A
C1528     Br1533   1.925       .  S
C1529      C1530   1.409       .  A
C1530     Br1531   1.929       .  S
C1535      C1536   1.414       .  A
C1535     Br1542   1.940       .  S
C1536      C1537   1.431       .  A
C1537     Br1544   1.940       .  S
C1538      C1539   1.415       .  A
C1538     Br1543   1.936       .  S
C1539      C1540   1.438       .  A
C1540     Br1541   1.945       .  S
C1545      C1546   1.420       .  A
C1545      C1550   1.425       .  A
C1545     Br1552   1.918       .  S
C1546      C1547   1.409       .  A
C1547      C1548   1.426       .  A
C1547     Br1554   1.923       .  S
C1548      C1549   1.421       .  A
C1548     Br1553   1.908       .  S
C1549      C1550   1.411       .  A
C1550     Br1551   1.925       .  S
C1555      C1556   1.411       .  A
C1555      C1560   1.416       .  A
C1555     Br1562   1.904       .  S
C1556      C1557   1.408       .  A
C1557      C1558   1.414       .  A
C1557     Br1564   1.925       .  S
C1558      C1559   1.411       .  A
C1558     Br1563   1.905       .  S
C1559      C1560   1.405       .  A
C1560     Br1561   1.921       .  S
C1565      C1566   1.408       .  A
C1565      C1570   1.414       .  A
C1565     Br1572   1.924       .  S
C1566      C1567   1.411       .  A
C1567      C1568   1.416       .  A
C1567     Br1574   1.919       .  S
C1568      C1569   1.406       .  A
C1568     Br1573   1.921       .  S
C1569      C1570   1.412       .  A
C1570     Br1571   1.918       .  S
C1575      C1576   1.407       .  A
C1575      C1580   1.413       .  A
C1575     Br1582   1.920       .  S
C1576      C1577   1.415       .  A
C1577      C1578   1.410       .  A
C1577     Br1584   1.915       .  S
C1578      C1579   1.405       .  A
C1578     Br1583   1.931       .  S
C1579      C1580   1.409       .  A
C1580     Br1581   1.909       .  S
C1585      C1586   1.407       .  A
C1585      C1590   1.401       .  A
C1585     Br1592   1.928       .  S
C1586      C1587   1.409       .  A
C1587      C1588   1.409       .  A
C1587     Br1594   1.928       .  S
C1588      C1589   1.407       .  A
C1588     Br1593   1.918       .  S
C1589      C1590   1.414       .  A
C1590     Br1591   1.923       .  S
C1595      C1596   1.420       .  A
C1595     Br1602   1.932       .  S
C1596      C1597   1.415       .  A
C1597     Br1604   1.933       .  S
C1598      C1599   1.414       .  A
C1598     Br1603   1.934       .  S
C1599      C1600   1.408       .  A
C1600     Br1601   1.931       .  S
C1605      C1606   1.434       .  A
C1605      C1610   1.429       .  A
C1605     Br1612   1.918       .  S
C1606      C1607   1.446       .  A
C1607      C1608   1.406       .  A
C1607     Br1614   1.933   1_455  S
C1608      C1609   1.400       .  A
C1608     Br1613   1.945       .  S
C1609      C1610   1.407       .  A
C1610     Br1611   1.930       .  S
C1615      C1616   1.404       .  A
C1615      C1620   1.404       .  A
C1615     Br1622   1.926       .  S
C1616      C1617   1.417       .  A
C1617      C1618   1.391       .  A
C1617     Br1624   1.924       .  S
C1618      C1619   1.398       .  A
C1618     Br1623   1.933   1_565  S
C1619      C1620   1.409       .  A
C1620     Br1621   1.920       .  S
C1625      C1626   1.414       .  A
C1625      C1630   1.408       .  A
C1625     Br1632   1.916       .  S
C1626      C1627   1.419       .  A
C1627      C1628   1.412       .  A
C1627     Br1634   1.929       .  S
C1628      C1629   1.408       .  A
C1628     Br1633   1.923       .  S
C1629      C1630   1.405       .  A
C1635      C1636   1.407       .  A
C1635      C1640   1.411       .  A
C1635     Br1642   1.924       .  S
C1636      C1637   1.412       .  A
C1637      C1638   1.398       .  A
C1637     Br1644   1.940       .  S
C1638      C1639   1.413       .  A
C1638     Br1643   1.930       .  S
C1639      C1640   1.412       .  A
C1640     Br1641   1.921       .  S
C1645      C1646   1.417       .  A
C1645      C1650   1.430       .  A
C1645     Br1652   1.932       .  S
C1646      C1647   1.410       .  A
C1647      C1648   1.410       .  A
C1647     Br1654   1.959       .  S
C1648      C1649   1.452       .  A
C1648     Br1653   1.945       .  S
C1649      C1650   1.427       .  A
C1650     Br1651   1.916       .  S
C1655      C1656   1.440       .  A
C1655      C1660   1.437       .  A
C1655     Br1662   1.927       .  S
C1656      C1657   1.431       .  A
C1657      C1658   1.388       .  A
C1657     Br1664   1.936       .  S
C1658      C1659   1.391       .  A
C1658     Br1663   1.908       .  S
C1659      C1660   1.416       .  A
C1660     Br1661   1.919       .  S
C1665      C1666   1.407       .  A
C1665      C1670   1.394       .  A
C1665     Br1672   1.923       .  S
C1666      C1667   1.406       .  A
C1667      C1668   1.415       .  A
C1667     Br1674   1.922       .  S
C1668      C1669   1.415       .  A
C1668     Br1673   1.926       .  S
C1669      C1670   1.417       .  A
C1670     Br1671   1.944       .  S
C1675      C1676   1.415       .  A
C1675      C1680   1.413       .  A
C1675     Br1682   1.928       .  S
C1676      C1677   1.423       .  A
C1677      C1678   1.394       .  A
C1677     Br1684   1.935       .  S
C1678      C1679   1.411       .  A
C1678     Br1683   1.945       .  S
C1679      C1680   1.408       .  A
C1680     Br1681   1.925       .  S
C1685      C1686   1.411       .  A
C1685      C1690   1.399       .  A
C1685     Br1692   1.944       .  S
C1686      C1687   1.406       .  A
C1687      C1688   1.409       .  A
C1687     Br1694   1.923       .  S
C1688      C1689   1.411       .  A
C1688     Br1693   1.927       .  S
C1689      C1690   1.417       .  A
C1690     Br1691   1.934       .  S
C1695      C1696   1.405       .  A
C1695      C1700   1.407       .  A
C1695     Br1702   1.928       .  S
C1696      C1697   1.409       .  A
C1697      C1698   1.410       .  A
C1697     Br1704   1.923       .  S
C1698      C1699   1.416       .  A
C1698     Br1703   1.928       .  S
C1699      C1700   1.413       .  A
C1700     Br1701   1.920       .  S
C1705      C1706   1.429       .  A
C1705      C1710   1.393       .  A
C1705     Br1712   1.925   1_655  S
C1706      C1707   1.434       .  A
C1707      C1708   1.433       .  A
C1707     Br1714   1.925       .  S
C1708      C1709   1.412       .  A
C1708     Br1713   1.927       .  S
C1709      C1710   1.395       .  A
C1710     Br1711   1.923       .  S
C1715      C1716   1.406       .  A
C1715      C1720   1.407       .  A
C1715     Br1722   1.929       .  S
C1716      C1717   1.422       .  A
C1717      C1718   1.396       .  A
C1717     Br1724   1.932       .  S
C1718      C1719   1.399       .  A
C1718     Br1723   1.933   1_565  S
C1719      C1720   1.411       .  A
C1720     Br1721   1.919       .  S
C1725      C1726   1.412       .  A
C1725      C1730   1.401       .  A
C1725     Br1732   1.913       .  S
C1726      C1727   1.418       .  A
C1727      C1728   1.423       .  A
C1727     Br1734   1.924       .  S
C1728      C1729   1.417       .  A
C1728     Br1733   1.925       .  S
C1729      C1730   1.397       .  A
C1730     Br1731   1.923       .  S
C1735      C1736   1.394       .  A
C1735      C1740   1.387       .  A
C1735     Br1742   1.919       .  S
C1736      C1737   1.414       .  A
C1737      C1738   1.431       .  A
C1737     Br1744   1.924       .  S
C1738      C1739   1.426       .  A
C1738     Br1743   1.922       .  S
C1739      C1740   1.433       .  A
C1740     Br1741   1.952       .  S
C1745      C1746   1.407       .  A
C1745      C1750   1.404       .  A
C1745     Br1752   1.929       .  S
C1746      C1747   1.417       .  A
C1747      C1748   1.409       .  A
C1747     Br1754   1.931       .  S
C1748      C1749   1.406       .  A
C1748     Br1753   1.908       .  S
C1749      C1750   1.410       .  A
C1750     Br1751   1.905       .  S
C1755      C1756   1.405       .  A
C1755      C1760   1.410       .  A
C1755     Br1762   1.925       .  S
C1756      C1757   1.395       .  A
C1757      C1758   1.397       .  A
C1757     Br1764   1.930       .  S
C1758      C1759   1.425       .  A
C1758     Br1763   1.939       .  S
C1759      C1760   1.416       .  A
C1760     Br1761   1.929       .  S
C1765      C1767   1.561       .  S
C1765      C1769   1.537       .  S
C1765      C1768   1.560       .  S
C1765      C2317   1.548       .  S
C1766      C1770   1.537       .  S
C1766      C1772   1.520       .  S
C1766      C1771   1.543       .  S
C1766      C2327   1.550       .  S
C1767      C1775   1.392       .  A
C1767      C1770   1.380       .  A
C1768      C1779   1.386       .  A
C1768      C1771   1.432       .  A
C1769      C1783   1.386       .  A
C1769      C1772   1.380       .  A
C1770      C1773   1.368       .  A
C1771      C1777   1.379       .  A
C1772      C1780   1.375       .  A
C1773      N1774   1.355       .  A
C1773      H1786   1.071       .  S
N1774      C1775   1.369       .  A
N1774      C2334   1.461       .  S
C1775      H1776   1.073       .  S
C1777      N1778   1.350       .  A
C1777      H1787   1.083       .  S
N1778      C1779   1.353       .  A
N1778      N1824   1.404       .  S
C1779      H1785   1.081       .  S
C1780      N1781   1.348       .  A
C1780      H1782   1.082       .  S
N1781      C1783   1.352       .  A
N1781      C2344   1.428       .  S
C1783      H1784   1.078       .  S
C1788      C1792   1.548   1_655  S
C1788      C1791   1.542       .  S
C1788      C2294   1.561       .  S
C1789      C1793   1.532       .  S
C1789      C1794   1.538       .  S
C1789      C2284   1.547       .  S
C1790      C1798   1.369   1_545  A
C1790      C1793   1.383   1_645  A
C1791      C1802   1.381       .  A
C1792      C1806   1.374       .  A
C1792      C1795   1.395       .  A
C1793      C1796   1.383       .  A
C1794      C1800   1.367       .  A
C1795      C1803   1.385       .  A
C1796      N1797   1.353   1_455  A
C1796      H1809   1.079       .  S
N1797      C1798   1.350       .  A
N1797      C2307   1.430       .  S
C1798      H1799   1.083   1_565  S
C1800      N1801   1.345   1_465  A
C1800      H1810   1.082       .  S
C1802      H1808   1.082       .  S
C1803      N1804   1.356       .  A
C1803      H1805   1.080       .  S
N1804      C1806   1.353       .  A
N1804      C2274   1.436       .  S
C1806      H1807   1.082       .  S
C1811      C1813   1.532       .  S
C1811      C1815   1.543       .  S
C1811      C2244   1.561       .  S
C1812      C1816   1.535       .  S
C1812      C1818   1.530       .  S
C1812      C2237   1.582       .  S
C1813      C1821   1.393       .  A
C1813      C1816   1.376       .  A
C1814      C1825   1.365       .  A
C1814      C1817   1.441       .  A
C1815      C1829   1.383       .  A
C1815      C1818   1.378       .  A
C1816      C1819   1.385       .  A
C1817      C1823   1.395       .  A
C1818      C1826   1.383       .  A
C1819      N1820   1.347       .  A
C1819      H1832   1.082       .  S
N1820      C1821   1.350       .  A
N1820      C2254   1.436       .  S
C1821      H1822   1.082       .  S
C1823      N1824   1.361       .  A
C1823      H1833   1.080       .  S
N1824      C1825   1.348       .  A
C1825      H1831   1.081       .  S
C1826      N1827   1.358       .  A
C1826      H1828   1.083       .  S
N1827      C1829   1.354       .  A
N1827      C2267   1.444       .  S
C1829      H1830   1.079       .  S
C1834      C1838   1.529       .  S
C1834      C2217   1.549       .  S
C1835      C1839   1.550       .  S
C1835      C1841   1.533   1_655  S
C1835      C2194   1.577   1_655  S
C1836      C1844   1.386       .  A
C1836      C1839   1.395       .  A
C1837      C1848   1.367       .  A
C1838      C1852   1.384   1_655  A
C1839      C1842   1.377       .  A
C1840      C1846   1.389       .  A
C1842      N1843   1.356       .  A
C1842      H1855   1.083       .  S
N1843      C1844   1.355       .  A
N1843      C2224   1.441       .  S
C1844      H1845   1.080       .  S
C1846      N1847   1.354   1_455  A
C1846      H1856   1.080       .  S
C1848      H1854   1.082       .  S
C1849      N1850   1.345       .  A
C1849      H1851   1.083   1_565  S
N1850      C1852   1.350       .  A
N1850      C2207   1.422       .  S
C1852      H1853   1.078   1_455  S
O1857     Cr1875   1.967       .  S
O1857      C1865   1.265       .  A
O1858     Cr1875   2.008       .  S
O1858      C1859   1.258       .  A
C1859      O1860   1.256       .  A
C1859      C2337   1.482       .  S
O1860     Cr1876   1.995       .  S
O1861     Cr1876   2.018       .  S
O1861      C1862   1.270       .  A
C1862      O1863   1.257       .  A
C1862      C2184   1.487       .  S
O1863     Cr1877   1.959       .  S
O1864     Cr1877   2.072       .  S
O1864      C1865   1.287       .  A
C1865      C2154   1.495       .  S
O1866     Cr1875   2.009       .  S
O1866      C1874   1.255       .  A
O1867     Cr1875   1.967       .  S
O1867      C1868   1.265       .  A
C1868      O1869   1.276       .  A
C1868      C2174   1.489       .  S
O1869     Cr1876   2.029       .  S
O1870     Cr1876   1.951       .  S
O1870      C1871   1.253       .  A
C1871      O1872   1.273       .  A
C1871      C2164   1.495       .  S
O1872     Cr1877   2.043       .  S
O1873     Cr1877   2.011       .  S
O1873      C1874   1.255       .  A
C1874      C2234   1.506       .  S
Cr1875     O1878   1.761       .  S
Cr1876     O1878   1.775       .  S
Cr1877     O1878   1.776       .  S
O1879     Cr1897   1.972       .  S
O1879      C1887   1.257       .  A
O1880     Cr1897   1.979       .  S
O1880      C1881   1.257       .  A
C1881      O1882   1.272       .  A
C1881      C2264   1.495       .  S
O1882     Cr1898   2.020       .  S
O1883     Cr1898   1.997       .  S
O1883      C1884   1.254       .  A
C1884      O1885   1.246       .  A
C1884      C2187   1.484       .  S
O1885     Cr1899   1.964       .  S
O1886     Cr1899   2.068       .  S
O1886      C1887   1.281       .  A
C1887      C2134   1.522       .  S
O1888     Cr1897   1.977       .  S
O1888      C1896   1.252       .  A
O1889     Cr1897   1.985       .  S
O1889      C1890   1.261       .  A
C1890      O1891   1.260       .  A
C1890      C2177   1.474       .  S
O1891     Cr1898   2.003       .  S
O1892     Cr1898   1.981       .  S
O1892      C1893   1.270       .  A
C1893      O1894   1.288       .  A
C1893      C2144   1.504       .  S
O1894     Cr1899   2.067       .  S
O1895     Cr1899   2.001       .  S
O1895      C1896   1.256       .  A
C1896      C2314   1.489       .  S
Cr1897     O1900   1.781       .  S
Cr1898     O1900   1.792       .  S
Cr1899     O1900   1.791       .  S
O1901     Cr1919   2.009       .  S
O1901      C1909   1.270       .  A
O1902     Cr1919   1.941       .  S
O1902      C1903   1.248       .  A
C1903      O1904   1.263       .  A
C1903      C2257   1.479       .  S
O1904     Cr1920   2.021       .  S
O1905     Cr1920   2.028       .  S
O1905      C1906   1.269       .  A
C1906      O1907   1.254       .  A
C1906      C2124   1.525       .  S
O1907     Cr1921   1.996       .  S
O1908     Cr1921   2.024       .  S
O1908      C1909   1.268       .  A
C1909      C2157   1.503       .  S
O1910     Cr1919   1.981       .  S
O1910      C1918   1.253       .  A
O1911     Cr1919   1.995       .  S
O1911      C1912   1.263       .  A
C1912      O1913   1.269       .  A
C1912      C2117   1.490       .  S
O1913     Cr1920   2.011       .  S
O1914     Cr1920   2.005       .  S
O1914      C1915   1.274       .  A
C1915      O1916   1.274       .  A
C1915      C2104   1.477       .  S
O1916     Cr1921   2.003       .  S
O1917     Cr1921   2.033       .  S
O1917      C1918   1.267       .  A
C1918      C2324   1.487       .  S
Cr1919     O1922   1.753       .  S
Cr1920     O1922   1.772       .  S
Cr1921     O1922   1.778       .  S
O1923     Cr1941   2.020       .  S
O1923      C1931   1.272       .  A
O1924     Cr1941   1.939       .  S
O1924      C1925   1.249       .  A
C1925      O1926   1.271       .  A
C1925      C2347   1.487       .  S
O1926     Cr1942   2.033       .  S
O1927     Cr1942   2.040       .  S
O1927      C1928   1.267       .  A
C1928      O1929   1.245       .  A
C1928      C2127   1.514       .  S
O1929     Cr1943   1.978       .  S
O1930     Cr1943   2.045       .  S
O1930      C1931   1.272       .  A
C1931      C2137   1.530       .  S
O1932     Cr1941   1.979       .  S
O1932      C1940   1.259       .  A
O1933     Cr1941   2.012       .  S
O1933      C1934   1.266       .  A
C1934      O1935   1.268       .  A
C1934      C2114   1.503       .  S
O1935     Cr1942   2.007       .  S
O1936     Cr1942   2.042       .  S
O1936      C1937   1.284       .  A
C1937      O1938   1.279       .  A
C1937      C2094   1.498       .  S
O1938     Cr1943   2.006       .  S
O1939     Cr1943   2.044       .  S
O1939      C1940   1.263       .  A
C1940      C2247   1.507       .  S
Cr1941     O1944   1.753       .  S
Cr1942     O1944   1.770       .  S
Cr1943     O1944   1.781       .  S
O1945     Cr1963   2.012       .  S
O1945      C1953   1.263       .  A
O1946     Cr1963   1.944       .  S
O1946      C1947   1.253       .  A
C1947      O1948   1.263       .  A
C1947      C2204   1.458       .  S
O1948     Cr1964   1.997       .  S
O1949     Cr1964   2.025       .  S
O1949      C1950   1.263       .  A
C1950      O1951   1.254       .  A
C1950      C2074   1.503       .  S
O1951     Cr1965   1.997       .  S
O1952     Cr1965   2.062       .  S
O1952      C1953   1.276       .  A
C1953      C2067   1.542       .  S
O1954     Cr1963   1.977       .  S
O1954      C1962   1.256       .  A
O1955     Cr1963   1.992       .  S
O1955      C1956   1.258       .  A
C1956      O1957   1.269       .  A
C1956      C2084   1.505       .  S
O1957     Cr1964   2.018       .  S
O1958     Cr1964   2.014       .  S
O1958      C1959   1.277       .  A
C1959      O1960   1.276       .  A
C1959      C2107   1.488       .  S
O1960     Cr1965   2.007       .  S
O1961     Cr1965   2.032       .  S
O1961      C1962   1.266       .  A
C1962      C2287   1.489       .  S
Cr1963     O1966   1.762       .  S
Cr1964     O1966   1.783       .  S
Cr1965     O1966   1.783       .  S
O1967     Cr1985   1.991       .  S
O1967      C1975   1.261       .  A
O1968     Cr1985   1.964       .  S
O1968      C1969   1.251       .  A
C1969      O1970   1.257       .  A
C1969      C2277   1.472       .  S
O1970     Cr1986   1.990       .  S
O1971     Cr1986   2.035       .  S
O1971      C1972   1.273       .  A
C1972      O1973   1.261       .  A
C1972      C2077   1.513       .  S
O1973     Cr1987   2.006       .  S
O1974     Cr1987   2.034       .  S
O1974      C1975   1.271       .  A
C1975      C2054   1.504       .  S
O1976     Cr1985   1.984       .  S
O1976      C1984   1.255       .  A
O1977     Cr1985   1.990       .  S
O1977      C1978   1.260       .  A
C1978      O1979   1.276       .  A
C1978      C2087   1.506       .  S
O1979     Cr1986   2.036       .  S
O1980     Cr1986   1.983       .  S
O1980      C1981   1.264       .  A
C1981      O1982   1.279       .  A
C1981      C2097   1.490       .  S
O1982     Cr1987   2.036       .  S
O1983     Cr1987   2.039       .  S
O1983      C1984   1.264       .  A
C1984      C2197   1.501       .  S
Cr1985     O1988   1.769       .  S
Cr1986     O1988   1.787       .  S
Cr1987     O1988   1.786       .  S
O1989     Cr2007   1.992       .  S
O1989      C1997   1.261       .  A
O1990     Cr2007   1.983       .  S
O1990      C1991   1.254       .  A
C1991      O1992   1.260       .  A
C1991      C2214   1.488       .  S
O1992     Cr2008   2.024       .  S
O1993     Cr2008   2.010       .  S
O1993      C1994   1.284       .  A
C1994      O1995   1.282       .  A
C1994      C2167   1.484       .  S
O1995     Cr2009   2.016       .  S
O1996     Cr2009   2.016       .  S
O1996      C1997   1.268       .  A
C1997      C2044   1.500       .  S
O1998     Cr2007   1.933       .  S
O1998      C2006   1.250       .  A
O1999     Cr2007   2.010       .  S
O1999      C2000   1.267       .  A
C2000      O2001   1.280       .  A
C2000      C2064   1.547       .  S
O2001     Cr2008   2.063       .  S
O2002     Cr2008   1.962       .  S
O2002      C2003   1.241       .  A
C2003      O2004   1.265       .  A
C2003      C2034   1.511       .  S
O2004     Cr2009   2.047       .  S
O2005     Cr2009   2.010       .  S
O2005      C2006   1.268       .  A
C2006      C2304   1.469       .  S
Cr2007     O2010   1.757       .  S
Cr2008     O2010   1.770       .  S
Cr2009     O2010   1.777       .  S
O2011     Cr2029   2.016       .  S
O2011      C2019   1.272       .  A
O2012     Cr2029   1.972       .  S
O2012      C2013   1.258       .  A
C2013      O2014   1.257       .  A
C2013      C2227   1.482       .  S
O2014     Cr2030   1.985       .  S
O2015     Cr2030   2.029       .  S
O2015      C2016   1.269       .  A
C2016      O2017   1.255       .  A
C2016      C2037   1.519       .  S
O2017     Cr2031   1.994       .  S
O2018     Cr2031   2.047       .  S
O2018      C2019   1.279       .  A
C2019      C2057   1.519       .  S
O2020     Cr2029   1.990       .  S
O2020      C2028   1.253       .  A
O2021     Cr2029   1.979       .  S
O2021      C2022   1.260       .  A
C2022      O2023   1.275       .  A
C2022      C2047   1.497       .  S
O2023     Cr2030   2.022       .  S
O2024     Cr2030   2.003       .  S
O2024      C2025   1.267       .  A
C2025      O2026   1.282       .  A
C2025      C2147   1.505       .  S
O2026     Cr2031   2.048       .  S
O2027     Cr2031   2.021       .  S
O2027      C2028   1.259       .  A
C2028      C2297   1.492       .  S
Cr2029     O2032   1.774       .  S
Cr2030     O2032   1.787       .  S
Cr2031     O2032   1.789       .  S
C2033      C2034   1.413       .  A
C2033      C2038   1.423       .  A
C2033     Br2040   1.932       .  S
C2034      C2035   1.426       .  A
C2035      C2036   1.411       .  A
C2035     Br2042   1.940       .  S
C2036      C2037   1.410       .  A
C2036     Br2041   1.926       .  S
C2037      C2038   1.428       .  A
C2038     Br2039   1.930       .  S
C2043      C2044   1.413       .  A
C2043     Br2050   1.928       .  S
C2044      C2045   1.415       .  A
C2045     Br2052   1.918       .  S
C2046      C2047   1.414       .  A
C2046     Br2051   1.929       .  S
C2047      C2048   1.416       .  A
C2048     Br2049   1.931       .  S
C2053      C2054   1.416       .  A
C2053      C2058   1.426   1_455  A
C2053     Br2060   1.925       .  S
C2054      C2055   1.406   1_455  A
C2055      C2056   1.417       .  A
C2055     Br2062   1.928       .  S
C2056      C2057   1.416       .  A
C2056     Br2061   1.910       .  S
C2057      C2058   1.415       .  A
C2058     Br2059   1.922       .  S
C2063      C2064   1.430       .  A
C2063      C2068   1.442   1_655  A
C2063     Br2070   1.927       .  S
C2064      C2065   1.427       .  A
C2065      C2066   1.413   1_655  A
C2065     Br2072   1.939       .  S
C2066      C2067   1.422       .  A
C2066     Br2071   1.938       .  S
C2067      C2068   1.424       .  A
C2068     Br2069   1.928       .  S
C2073      C2074   1.408       .  A
C2073      C2078   1.418       .  A
C2073     Br2080   1.932       .  S
C2074      C2075   1.415       .  A
C2075      C2076   1.420       .  A
C2075     Br2082   1.924       .  S
C2076      C2077   1.414       .  A
C2076     Br2081   1.929       .  S
C2077      C2078   1.425       .  A
C2078     Br2079   1.926       .  S
C2083      C2084   1.415       .  A
C2083     Br2090   1.928       .  S
C2084      C2085   1.417   1_565  A
C2085     Br2092   1.923   1_545  S
C2086      C2087   1.412       .  A
C2086     Br2091   1.928       .  S
C2087      C2088   1.415       .  A
C2088     Br2089   1.926       .  S
C2093      C2094   1.411       .  A
C2093      C2098   1.419       .  A
C2093     Br2100   1.926       .  S
C2094      C2095   1.411       .  A
C2095      C2096   1.412       .  A
C2095     Br2102   1.911       .  S
C2096      C2097   1.407       .  A
C2096     Br2101   1.929       .  S
C2097      C2098   1.410       .  A
C2098     Br2099   1.913       .  S
C2103      C2104   1.401       .  A
C2103      C2108   1.404       .  A
C2103     Br2110   1.931       .  S
C2104      C2105   1.409       .  A
C2105      C2106   1.414       .  A
C2105     Br2112   1.912       .  S
C2106      C2107   1.406       .  A
C2106     Br2111   1.922       .  S
C2107      C2108   1.410       .  A
C2108     Br2109   1.902       .  S
C2113      C2114   1.413       .  A
C2113      C2118   1.412       .  A
C2113     Br2120   1.910       .  S
C2114      C2115   1.416       .  A
C2115      C2116   1.415       .  A
C2115     Br2122   1.926       .  S
C2116      C2117   1.410       .  A
C2116     Br2121   1.924       .  S
C2117      C2118   1.408       .  A
C2118     Br2119   1.929       .  S
C2123      C2124   1.418       .  A
C2123     Br2130   1.938       .  S
C2124      C2125   1.435       .  A
C2125     Br2132   1.941       .  S
C2126      C2127   1.409       .  A
C2126     Br2131   1.937       .  S
C2127      C2128   1.427       .  A
C2128     Br2129   1.941       .  S
C2133      C2134   1.420       .  A
C2133      C2138   1.425       .  A
C2133     Br2140   1.918       .  S
C2134      C2135   1.409       .  A
C2135      C2136   1.428       .  A
C2135     Br2142   1.924       .  S
C2136      C2137   1.424       .  A
C2136     Br2141   1.913       .  S
C2137      C2138   1.411       .  A
C2138     Br2139   1.926       .  S
C2143      C2144   1.411       .  A
C2143      C2148   1.421       .  A
C2143     Br2150   1.910       .  S
C2144      C2145   1.407       .  A
C2145      C2146   1.416       .  A
C2145     Br2152   1.924       .  S
C2146      C2147   1.410       .  A
C2146     Br2151   1.904       .  S
C2147      C2148   1.410       .  A
C2148     Br2149   1.919       .  S
C2153      C2154   1.408       .  A
C2153      C2158   1.410       .  A
C2153     Br2160   1.924       .  S
C2154      C2155   1.413       .  A
C2155      C2156   1.420       .  A
C2155     Br2162   1.926       .  S
C2156      C2157   1.409       .  A
C2156     Br2161   1.920       .  S
C2157      C2158   1.409       .  A
C2158     Br2159   1.917       .  S
C2163      C2164   1.408       .  A
C2163      C2168   1.413       .  A
C2163     Br2170   1.921       .  S
C2164      C2165   1.417       .  A
C2165      C2166   1.408       .  A
C2165     Br2172   1.913       .  S
C2166      C2167   1.402       .  A
C2166     Br2171   1.931       .  S
C2167      C2168   1.408       .  A
C2168     Br2169   1.904       .  S
C2173      C2174   1.412       .  A
C2173      C2178   1.401       .  A
C2173     Br2180   1.930       .  S
C2174      C2175   1.410       .  A
C2175      C2176   1.406       .  A
C2175     Br2182   1.922       .  S
C2176      C2177   1.405       .  A
C2176     Br2181   1.918       .  S
C2177      C2178   1.412       .  A
C2178     Br2179   1.927       .  S
C2183      C2184   1.418       .  A
C2183     Br2190   1.932       .  S
C2184      C2185   1.412       .  A
C2185     Br2192   1.933       .  S
C2186      C2187   1.416       .  A
C2186     Br2191   1.934       .  S
C2187      C2188   1.407       .  A
C2188     Br2189   1.933       .  S
C2193      C2194   1.432       .  A
C2193      C2198   1.433       .  A
C2193     Br2200   1.921       .  S
C2194      C2195   1.438       .  A
C2195      C2196   1.399       .  A
C2195     Br2202   1.932   1_455  S
C2196      C2197   1.399       .  A
C2196     Br2201   1.932       .  S
C2197      C2198   1.411       .  A
C2198     Br2199   1.928       .  S
C2203      C2204   1.407       .  A
C2203      C2208   1.406       .  A
C2203     Br2210   1.926       .  S
C2204      C2205   1.411       .  A
C2205      C2206   1.384       .  A
C2205     Br2212   1.932       .  S
C2206      C2207   1.397       .  A
C2206     Br2211   1.921       .  S
C2207      C2208   1.408       .  A
C2208     Br2209   1.920       .  S
C2213      C2214   1.412       .  A
C2213      C2218   1.407       .  A
C2213     Br2220   1.914       .  S
C2214      C2215   1.418       .  A
C2215      C2216   1.413       .  A
C2215     Br2222   1.928       .  S
C2216      C2217   1.407       .  A
C2216     Br2221   1.923   1_655  S
C2217      C2218   1.403       .  A
C2223      C2224   1.407       .  A
C2223      C2228   1.410       .  A
C2223     Br2230   1.924       .  S
C2224      C2225   1.414       .  A
C2225      C2226   1.402       .  A
C2225     Br2232   1.942       .  S
C2226      C2227   1.415       .  A
C2226     Br2231   1.928       .  S
C2227      C2228   1.412       .  A
C2228     Br2229   1.923       .  S
C2233      C2234   1.415       .  A
C2233      C2238   1.429       .  A
C2233     Br2240   1.932       .  S
C2234      C2235   1.407       .  A
C2235      C2236   1.410       .  A
C2235     Br2242   1.961       .  S
C2236      C2237   1.455       .  A
C2236     Br2241   1.945       .  S
C2237      C2238   1.427       .  A
C2238     Br2239   1.916       .  S
C2243      C2244   1.439       .  A
C2243      C2248   1.437       .  A
C2243     Br2250   1.927       .  S
C2244      C2245   1.430       .  A
C2245      C2246   1.384       .  A
C2245     Br2252   1.942       .  S
C2246      C2247   1.389       .  A
C2246     Br2251   1.903       .  S
C2247      C2248   1.416       .  A
C2248     Br2249   1.918       .  S
C2253      C2254   1.407       .  A
C2253      C2258   1.394       .  A
C2253     Br2260   1.923       .  S
C2254      C2255   1.406       .  A
C2255      C2256   1.414       .  A
C2255     Br2262   1.923       .  S
C2256      C2257   1.414       .  A
C2256     Br2261   1.925       .  S
C2257      C2258   1.417       .  A
C2258     Br2259   1.945       .  S
C2263      C2264   1.415       .  A
C2263      C2268   1.416       .  A
C2263     Br2270   1.927       .  S
C2264      C2265   1.425       .  A
C2265      C2266   1.397       .  A
C2265     Br2272   1.934       .  S
C2266      C2267   1.412       .  A
C2266     Br2271   1.945       .  S
C2267      C2268   1.409       .  A
C2268     Br2269   1.924       .  S
C2273      C2274   1.412       .  A
C2273      C2278   1.398       .  A
C2273     Br2280   1.942       .  S
C2274      C2275   1.409       .  A
C2275      C2276   1.409       .  A
C2275     Br2282   1.923       .  S
C2276      C2277   1.409       .  A
C2276     Br2281   1.928       .  S
C2277      C2278   1.415       .  A
C2278     Br2279   1.935       .  S
C2283      C2284   1.404       .  A
C2283      C2288   1.407       .  A
C2283     Br2290   1.928       .  S
C2284      C2285   1.410       .  A
C2285      C2286   1.414       .  A
C2285     Br2292   1.921       .  S
C2286      C2287   1.416       .  A
C2286     Br2291   1.925       .  S
C2287      C2288   1.412       .  A
C2288     Br2289   1.917       .  S
C2293      C2294   1.426       .  A
C2293      C2298   1.389       .  A
C2293     Br2300   1.930   1_655  S
C2294      C2295   1.433       .  A
C2295      C2296   1.431       .  A
C2295     Br2302   1.926       .  S
C2296      C2297   1.412       .  A
C2296     Br2301   1.926       .  S
C2297      C2298   1.394       .  A
C2298     Br2299   1.918       .  S
C2303      C2304   1.404       .  A
C2303      C2308   1.409       .  A
C2303     Br2310   1.928       .  S
C2304      C2305   1.417       .  A
C2305      C2306   1.391       .  A
C2305     Br2312   1.931       .  S
C2306      C2307   1.401       .  A
C2306     Br2311   1.934   1_565  S
C2307      C2308   1.414       .  A
C2308     Br2309   1.918       .  S
C2313      C2314   1.412       .  A
C2313      C2318   1.397       .  A
C2313     Br2320   1.916       .  S
C2314      C2315   1.416       .  A
C2315      C2316   1.423       .  A
C2315     Br2322   1.925       .  S
C2316      C2317   1.419       .  A
C2316     Br2321   1.924       .  S
C2317      C2318   1.396       .  A
C2318     Br2319   1.921       .  S
C2323      C2324   1.394       .  A
C2323      C2328   1.386       .  A
C2323     Br2330   1.917       .  S
C2324      C2325   1.415       .  A
C2325      C2326   1.428       .  A
C2325     Br2332   1.922       .  S
C2326      C2327   1.427       .  A
C2326     Br2331   1.926       .  S
C2327      C2328   1.426       .  A
C2328     Br2329   1.946       .  S
C2333      C2334   1.412       .  A
C2333      C2338   1.413       .  A
C2333     Br2340   1.926       .  S
C2334      C2335   1.414       .  A
C2335      C2336   1.400       .  A
C2335     Br2342   1.930       .  S
C2336      C2337   1.402       .  A
C2336     Br2341   1.903       .  S
C2337      C2338   1.410       .  A
C2338     Br2339   1.912       .  S
C2343      C2344   1.406       .  A
C2343      C2348   1.413       .  A
C2343     Br2350   1.925       .  S
C2344      C2345   1.394       .  A
C2345      C2346   1.397       .  A
C2345     Br2352   1.932       .  S
C2346      C2347   1.426       .  A
C2346     Br2351   1.939       .  S
C2347      C2348   1.416       .  A
C2348     Br2349   1.928       .  S
