geometry optimzed in LAMMPS
_audit_creation_date              2020-12-01 
_audit_creation_method            'lammps2cif' 
_symmetry_space_group_name_H-M    'P1' 
_symmetry_Int_Tables_number       1 
_symmetry_cell_setting            triclinic 
loop_ 
_symmetry_equiv_pos_as_xyz 
  x,y,z 
_cell_length_a                    38.39846406 
_cell_length_b                    38.53547205897411 
_cell_length_c                    33.15174979754771 
_cell_angle_alpha                 90.18097188266344 
_cell_angle_beta                  89.9295253823061 
_cell_angle_gamma                 119.97843324816611 
loop_ 
_atom_site_label 
_atom_site_type_symbol 
_atom_site_fract_x 
_atom_site_fract_y 
_atom_site_fract_z 
_atom_site_charge 
C1          C  0.02134554  0.12308505  0.08342124     0.03300
C2          C  0.05391577  0.16322456  0.08017825    -0.12800
C3          C  0.05228998  0.19452780  0.10135664     0.00800
C4          C  0.01777002  0.18496566  0.12401416    -0.11300
C5          C  0.48837784  0.14579072  0.12794086     0.03300
C6          C  0.48969394  0.11494607  0.10735434    -0.10800
H7          H  0.07942055  0.16996130  0.06110066     0.08900
H8          H  0.01473681  0.20870246  0.13821246     0.06500
H9          H  0.46343762  0.08516989  0.10804944     0.06300
C10         C  0.36192114  0.40962958  0.08215491     0.03300
C11         C  0.37090261  0.38508068  0.10586408    -0.12800
C12         C  0.34065821  0.35203715  0.12596982     0.00800
C13         C  0.30105400  0.34415538  0.12378195    -0.11300
C14         C  0.29073299  0.36887189  0.10184560     0.03300
C15         C  0.32154632  0.40185175  0.08042364    -0.10800
H16         H  0.40126768  0.38992772  0.10639420     0.08900
H17         H  0.27795729  0.31818683  0.13954887     0.06500
H18         H  0.31425705  0.42077497  0.06245186     0.06300
C19         C  0.07942913  0.46542223  0.06842577     0.03300
C20         C  0.08281158  0.43022771  0.07112357    -0.12800
C21         C  0.11823923  0.43285636  0.08783620     0.00800
C22         C  0.14922879  0.47070840  0.10034680    -0.11300
C23         C  0.14555165  0.50473309  0.09759894     0.03300
C24         C  0.11065126  0.50195945  0.08259477    -0.10800
H25         H  0.05862160  0.40173818  0.06048863     0.08900
H26         H  0.17648204  0.47401847  0.11376289     0.06500
H27         H  0.10434502  0.02782250  0.08712456     0.06300
C28         C  0.35173479  0.15779811  0.17099316     0.80400
N29         N  0.36158258  0.19674479  0.17393614    -0.77900
C30         C  0.33251814  0.20696231  0.17207479     0.82900
N31         N  0.29360526  0.17812411  0.16581003    -0.77800
C32         C  0.28376021  0.13917226  0.16260641     0.83000
N33         N  0.31305480  0.12942856  0.16450601    -0.79500
C34         C  0.39035395  0.03784933  0.90691237     0.03300
C35         C  0.38968343  0.07453039  0.90823248    -0.12800
C36         C  0.35776120  0.07670243  0.88910301     0.00800
C37         C  0.32906574  0.04368401  0.86751780    -0.11300
C38         C  0.32855130  0.00757458  0.86746409     0.03300
C39         C  0.35947807  0.00483265  0.88605563    -0.10800
H40         H  0.41223300  0.09993691  0.92511491     0.08900
H41         H  0.30505164  0.04522157  0.85196782     0.06500
H42         H  0.35705688  0.47516119  0.88371942     0.06300
C43         C  0.10660258  0.08977747  0.90151029     0.03300
C44         C  0.14415765  0.09068181  0.90253441    -0.12800
C45         C  0.17793586  0.12224362  0.88296378     0.00800
C46         C  0.17312091  0.15019825  0.86078362    -0.11300
C47         C  0.13747559  0.15088375  0.86136983     0.03300
C48         C  0.10397700  0.12030322  0.88065214    -0.10800
H49         H  0.14753043  0.06882309  0.91996140     0.08900
H50         H  0.19859597  0.17400550  0.84497645     0.06500
H51         H  0.07647937  0.12169846  0.88122042     0.06300
C52         C  0.11324233  0.33438734  0.80899715     0.80400
N53         N  0.11233172  0.29872784  0.81002537    -0.77900
C54         C  0.14694965  0.29744545  0.81044074     0.82900
N55         N  0.18276074  0.33217199  0.81127420    -0.77800
C56         C  0.18392875  0.36785338  0.81014999     0.83000
N57         N  0.14907948  0.36868020  0.80982618    -0.79500
C58         C  0.44405644  0.37433292  0.90048378     0.03300
C59         C  0.40762972  0.33685835  0.90334926    -0.12800
C60         C  0.40522578  0.30244294  0.88497989     0.00800
C61         C  0.43777085  0.30637060  0.86268315    -0.11300
C62         C  0.47383062  0.34209022  0.86125113     0.03300
C63         C  0.47669370  0.37624861  0.87883048    -0.10800
H64         H  0.38268951  0.33414938  0.92106708     0.08900
H65         H  0.43601944  0.28041891  0.84787075     0.06500
H66         H  0.50541485  0.40379209  0.87767941     0.06300
Zn67       Zn  0.49970029  0.05553120  0.97010550     1.49700
Zn68       Zn  0.42700442  0.46279277  0.97090257     1.49400
Zn69       Zn  0.02056088  0.48398417  0.96669436     1.49100
Zn70       Zn  0.48623259  0.49907370  0.04799915     1.49500
O71         O  0.48254552  0.50049513  0.98913738    -1.83900
O72         O  0.45382720  0.05879964  0.94064220    -0.74500
O73         O  0.42368734  0.41535044  0.93802244    -0.74400
O74         O  0.06539239  0.02712458  0.93620433    -0.73900
O75         O  0.40650518  0.49294538  0.93792433    -0.74600
O76         O  0.04679727  0.07323124  0.93686917    -0.74200
O77         O  0.48875162  0.43636088  0.93095965    -0.74700
O78         O  0.02699550  0.48118588  0.06612970    -0.74100
O79         O  0.38855578  0.43861022  0.01819901    -0.74900
O80         O  0.04638187  0.46605570  0.00868265    -0.74300
O81         O  0.43026202  0.45975019  0.07076497    -0.74700
O82         O  0.50283403  0.05475570  0.07009559    -0.74700
O83         O  0.01674807  0.09425373  0.01878509    -0.74400
C84         C  0.41931891  0.03035817  0.92987247     0.77300
C85         C  0.45206436  0.41058554  0.92410001     0.77800
C86         C  0.07113852  0.06152601  0.92600492     0.76800
C87         C  0.04743087  0.46854357  0.04693649     0.77200
C88         C  0.39490639  0.43877464  0.05589531     0.78300
C89         C  0.01537547  0.08952346  0.05683582     0.77400
C90         C  0.24337157  0.29576479  0.72455052     0.03300
C91         C  0.28109197  0.32523126  0.71057254    -0.12800
C92         C  0.31377194  0.31891694  0.70883878     0.00800
C93         C  0.31075719  0.28450004  0.72586526    -0.11300
C94         C  0.27515984  0.25571684  0.74456260     0.03300
C95         C  0.24044179  0.26073168  0.74291966    -0.10800
H96         H  0.28437318  0.35276292  0.69822788     0.08900
H97         H  0.33714500  0.28109276  0.72609280     0.06500
H98         H  0.21187839  0.23758505  0.75458312     0.06300
C99         C  0.18665746  0.46587648  0.72536602     0.03300
C100        C  0.15690356  0.47376553  0.71130576    -0.12800
C101        C  0.16237274  0.51241120  0.71087286     0.00800
C102        C  0.19734208  0.04298123  0.73010981    -0.11300
C103        C  0.22698385  0.03663203  0.74736667     0.03300
C104        C  0.22230379  0.99709365  0.74478496    -0.10800
H105        H  0.12980081  0.44953147  0.69797284     0.08900
H106        H  0.20059996  0.07261523  0.73078143     0.06500
H107        H  0.24593494  0.99195353  0.75556863     0.06300
C108        C  0.01658271  0.23969145  0.72459527     0.03300
C109        C  0.48410172  0.24191619  0.74581138    -0.12800
C110        C  0.44442440  0.20738916  0.74800740     0.00800
C111        C  0.43742960  0.17159492  0.72988243    -0.11300
C112        C  0.46846673  0.16815839  0.71236992     0.03300
C113        C  0.00877796  0.20212440  0.71060400    -0.10800
H114        H  0.48960576  0.27055172  0.75729962     0.08900
H115        H  0.40755527  0.14541774  0.73055831     0.06500
H116        H  0.03330368  0.19921787  0.69803391     0.06300
C117        C  0.47020812  0.02813256  0.66389703     0.80400
N118        N  0.44277122  0.49004129  0.65816682    -0.77900
C119        C  0.45266999  0.46087223  0.65712839     0.82900
N120        N  0.49186217  0.47087440  0.65757703    -0.77800
C121        C  0.01940787  0.50894468  0.66148743     0.83000
N122        N  0.01069313  0.03792870  0.66181345    -0.79500
Zn123      Zn  0.28213903  0.11219400  0.85102519     1.49700
Zn124      Zn  0.31500269  0.16666184  0.77229038     1.49400
Zn125      Zn  0.29178469  0.19986827  0.85010862     1.49100
Zn126      Zn  0.36978613  0.18993281  0.85193523     1.49500
O127        O  0.31473780  0.16724034  0.83024621    -1.83900
O128        O  0.26493622  0.06851717  0.80720859    -0.74500
O129        O  0.29752783  0.20761471  0.75260141    -0.74400
O130        O  0.24727068  0.16674101  0.88962965    -0.73900
O131        O  0.27454012  0.10735058  0.75408754    -0.74600
O132        O  0.22813400  0.10433244  0.87052231    -0.74200
O133        O  0.26841222  0.21885997  0.80508334    -0.74700
O134        O  0.37950424  0.23325147  0.89252644    -0.74100
O135        O  0.37397144  0.18486199  0.75471765    -0.74900
O136        O  0.33710700  0.25305272  0.87206126    -0.74300
O137        O  0.41325431  0.21410264  0.80793341    -0.74700
O138        O  0.37725511  0.14454960  0.87422490    -0.74700
O139        O  0.31447311  0.10322087  0.89377462    -0.74400
C140        C  0.25890909  0.07228464  0.77012015     0.77300
C141        C  0.27867682  0.22424013  0.76808262     0.77800
C142        C  0.21981904  0.13030161  0.88402843     0.76800
C143        C  0.37100594  0.26094683  0.88646224     0.77200
C144        C  0.40913162  0.20402822  0.77086580     0.78300
C145        C  0.35075170  0.11113660  0.88879079     0.77400
C146        C  0.07049760  0.12287151  0.57249188     0.03300
C147        C  0.07818048  0.16289971  0.56810274    -0.12800
C148        C  0.11170041  0.19491558  0.58792321     0.00800
C149        C  0.13746821  0.18608596  0.61009522    -0.11300
C150        C  0.12867944  0.14665351  0.61645566     0.03300
C151        C  0.09481467  0.11531124  0.59824314    -0.10800
H152        H  0.05868851  0.16895526  0.54948483     0.08900
H153        H  0.16481099  0.21034761  0.62287193     0.06500
H154        H  0.08923220  0.08496037  0.60169518     0.06300
C155        C  0.01364580  0.40704919  0.57117471     0.03300
C156        C  0.47859528  0.38103335  0.59727481    -0.12800
C157        C  0.47603169  0.34696464  0.61484216     0.00800
C158        C  0.01040892  0.33966663  0.60666686    -0.11300
C159        C  0.04584890  0.36714678  0.58666425     0.03300
C160        C  0.04719839  0.40092374  0.56803110    -0.10800
H161        H  0.45304992  0.38571627  0.59932318     0.08900
H162        H  0.00787095  0.31251959  0.61910008     0.06500
H163        H  0.07345388  0.42163123  0.55093073     0.06300
C164        C  0.35620687  0.46499666  0.57327601     0.03300
C165        C  0.31645713  0.43215409  0.56891583    -0.12800
C166        C  0.28389910  0.43390365  0.58688950     0.00800
C167        C  0.29189826  0.46891785  0.60773628    -0.11300
C168        C  0.33117626  0.49999096  0.61448655     0.03300
C169        C  0.36316987  0.49762968  0.59761309    -0.10800
H170        H  0.31097798  0.40617980  0.55131809     0.08900
H171        H  0.26717888  0.47188157  0.61954090     0.06500
H172        H  0.39052659  0.02173817  0.60029808     0.06300
C173        C  0.32255909  0.13541991  0.66824232     0.80400
N174        N  0.28298677  0.12419937  0.66844875    -0.77900
C175        C  0.27139599  0.15215065  0.66868517     0.82900
N176        N  0.29969993  0.19162276  0.66734068    -0.77800
C177        C  0.33936950  0.20313215  0.66721732     0.83000
N178        N  0.35065679  0.17489271  0.66697399    -0.79500
Zn179      Zn  0.16372859  0.38596951  0.62520879     1.49700
Zn180      Zn  0.14896022  0.33365986  0.70892944     1.49400
Zn181      Zn  0.09540686  0.29598131  0.62449975     1.49100
Zn182      Zn  0.18520609  0.31678021  0.62447879     1.49500
O183        O  0.14841236  0.33309548  0.64764209    -1.83900
O184        O  0.18186368  0.42626043  0.66982787    -0.74500
O185        O  0.08758040  0.29356487  0.72823474    -0.74400
O186        O  0.07263268  0.32347051  0.59014874    -0.73900
O187        O  0.17049087  0.39513630  0.72871289    -0.74600
O188        O  0.11501869  0.38813344  0.60137828    -0.74200
O189        O  0.05576365  0.27457269  0.66932766    -0.74700
O190        O  0.15707862  0.26510664  0.59175508    -0.74100
O191        O  0.18901195  0.31235761  0.72849030    -0.74900
O192        O  0.09228539  0.24460168  0.60059462    -0.74300
O193        O  0.20841604  0.30053298  0.66935243    -0.74700
O194        O  0.23543180  0.36490516  0.59959848    -0.74700
O195        O  0.21360875  0.40806650  0.59052104    -0.74400
C196        C  0.18209303  0.42746478  0.70814796     0.77300
C197        C  0.05498463  0.27335176  0.70762481     0.77800
C198        C  0.08048834  0.35985089  0.59049868     0.76800
C199        C  0.12023754  0.23730071  0.59103955     0.77200
C200        C  0.20965383  0.30063559  0.70765497     0.78300
C201        C  0.24187555  0.39968660  0.58992429     0.77400
C202        C  0.38525281  0.36503468  0.40875005     0.03300
C203        C  0.34857275  0.36176234  0.39693834    -0.12800
C204        C  0.31581441  0.32502979  0.38631824     0.00800
C205        C  0.31857571  0.29063424  0.38763803    -0.11300
C206        C  0.35475102  0.29239775  0.39712614     0.03300
C207        C  0.38889606  0.33000171  0.40718489    -0.10800
H208        H  0.34479956  0.38778012  0.39637448     0.08900
H209        H  0.29319241  0.26266669  0.37718854     0.06500
H210        H  0.41733829  0.33180634  0.41392147     0.06300
C211        C  0.43988460  0.09144857  0.40946914     0.03300
C212        C  0.40145027  0.08867726  0.40650319    -0.12800
C213        C  0.39917424  0.12326004  0.39538627     0.00800
C214        C  0.43435636  0.15878555  0.38650547    -0.11300
C215        C  0.47083635  0.16003973  0.38533291     0.03300
C216        C  0.47388240  0.12731783  0.39735611    -0.10800
H217        H  0.37426587  0.06068874  0.41276109     0.08900
H218        H  0.43295452  0.18477513  0.37603649     0.06500
H219        H  0.50344465  0.13056349  0.39762238     0.06300
C220        C  0.10978561  0.03502859  0.40372668     0.03300
C221        C  0.14545483  0.07337494  0.40128736    -0.12800
C222        C  0.18229460  0.07589171  0.38903279     0.00800
C223        C  0.18254870  0.04106708  0.37824268    -0.11300
C224        C  0.14733152  0.00460685  0.37670997     0.03300
C225        C  0.11149632  0.00137680  0.38983372    -0.10800
H226        H  0.14474837  0.10028790  0.40922406     0.08900
H227        H  0.21012306  0.04271943  0.36758139     0.06500
H228        H  0.08426389  0.47323921  0.38799798     0.06300
C229        C  0.14921856  0.36612420  0.32329061     0.80400
N230        N  0.18199857  0.36168894  0.32398027    -0.77900
C231        C  0.17770198  0.32466528  0.32412871     0.82900
N232        N  0.14043412  0.29200025  0.32481040    -0.77800
C233        C  0.10755536  0.29620926  0.32351922     0.83000
N234        N  0.11199974  0.33334588  0.32389953    -0.79500
Zn235      Zn  0.01568524  0.05166236  0.46433826     1.49700
Zn236      Zn  0.49677699  0.46041505  0.46547602     1.49400
Zn237      Zn  0.48047080  0.49905521  0.54342393     1.49100
Zn238      Zn  0.42516806  0.48114461  0.46457431     1.49500
O239        O  0.47999994  0.49839882  0.48442733    -1.83900
O240        O  0.06406602  0.05503920  0.43250291    -0.74500
O241        O  0.01292521  0.43642027  0.50862483    -0.74400
O242        O  0.02043568  0.05413165  0.56426070    -0.73900
O243        O  0.04606294  0.49182421  0.43121081    -0.74600
O244        O  0.04078736  0.09251888  0.50966212    -0.74200
O245        O  0.49537763  0.45851896  0.56550448    -0.74700
O246        O  0.38564325  0.46514603  0.51055262    -0.74100
O247        O  0.45138983  0.41143521  0.43553389    -0.74900
O248        O  0.42496004  0.48393439  0.56476403    -0.74300
O249        O  0.40541279  0.43027887  0.43298089    -0.74700
O250        O  0.41966002  0.02491561  0.43540307    -0.74700
O251        O  0.48423998  0.07150818  0.43644141    -0.74400
C252        C  0.07128924  0.02695764  0.42353325     0.77300
C253        C  0.00867064  0.43641241  0.54663327     0.77800
C254        C  0.04120747  0.08844163  0.54767270     0.76800
C255        C  0.39038248  0.47004652  0.54847309     0.77200
C256        C  0.41630525  0.40449662  0.42583602     0.78300
C257        C  0.44779505  0.06038350  0.42742282     0.77400
C258        C  0.24036252  0.46393857  0.24237550     0.03300
C259        C  0.27074787  0.46208204  0.26439112    -0.12800
C260        C  0.29985282  0.49544315  0.28574602     0.00800
C261        C  0.30777454  0.03400431  0.27296154    -0.11300
C262        C  0.27677801  0.03807296  0.25559146     0.03300
C263        C  0.24088137  0.50119376  0.23990782    -0.10800
H264        H  0.27304998  0.43527487  0.26303814     0.08900
H265        H  0.33383596  0.05995520  0.28560438     0.06500
H266        H  0.21922792  0.50389124  0.22125493     0.06300
C267        C  0.18695003  0.24864214  0.25382256     0.03300
C268        C  0.22366896  0.24799854  0.25288383    -0.12800
C269        C  0.22763730  0.21932988  0.27592378     0.00800
C270        C  0.19520452  0.19202312  0.29919109    -0.11300
C271        C  0.15817263  0.19031181  0.29802827     0.03300
C272        C  0.15451232  0.21955435  0.27652523    -0.10800
H273        H  0.24799361  0.26843244  0.23356640     0.08900
H274        H  0.19757886  0.16918541  0.31584054     0.06500
H275        H  0.12549801  0.21749735  0.27437890     0.06300
C276        C  0.02409100  0.29957552  0.24628503     0.03300
C277        C  0.02833117  0.33322885  0.26707352    -0.12800
C278        C  0.49292749  0.33285073  0.28207531     0.00800
C279        C  0.45644772  0.29726032  0.28261244    -0.11300
C280        C  0.45120336  0.26281327  0.26317091     0.03300
C281        C  0.48449815  0.26432087  0.24258916    -0.10800
H282        H  0.05590046  0.36156016  0.26451674     0.08900
H283        H  0.43123875  0.29690801  0.29783395     0.06500
H284        H  0.48086786  0.23819127  0.22658920     0.06300
C285        C  0.44765421  0.50433896  0.33912652     0.80400
N286        N  0.44789863  0.46930610  0.33717351    -0.77900
C287        C  0.48306652  0.46900618  0.33770629     0.82900
N288        N  0.02029718  0.00376883  0.34051009    -0.77800
C289        C  0.02030465  0.03902902  0.34171231     0.83000
N290        N  0.48507507  0.03971737  0.33808904    -0.79500
Zn291      Zn  0.09642133  0.31663602  0.13749656     1.49700
Zn292      Zn  0.16798888  0.29492915  0.14087453     1.49400
Zn293      Zn  0.18995421  0.38667895  0.13636287     1.49100
Zn294      Zn  0.15052200  0.33651092  0.21765674     1.49500
O295        O  0.15107051  0.33354559  0.15840110    -1.83900
O296        O  0.07533564  0.26405663  0.10657069    -0.74500
O297        O  0.22107682  0.32306328  0.11066137    -0.74400
O298        O  0.16112390  0.40641287  0.10037617    -0.73900
O299        O  0.12096883  0.24476875  0.11426068    -0.74600
O300        O  0.09547122  0.36436802  0.10862948    -0.74200
O301        O  0.24043120  0.38801134  0.11224897    -0.74700
O302        O  0.19074764  0.39428262  0.23697787    -0.74100
O303        O  0.18286339  0.27240846  0.18892688    -0.74900
O304        O  0.21327428  0.42939009  0.18045386    -0.74300
O305        O  0.16589247  0.29658724  0.24145141    -0.74700
O306        O  0.09377637  0.32093018  0.23772251    -0.74700
O307        O  0.05503753  0.30064567  0.18324824    -0.74400
C308        C  0.08550072  0.23704913  0.10490480     0.77300
C309        C  0.24818415  0.35979959  0.10622233     0.77800
C310        C  0.12458743  0.39836783  0.09749408     0.82800
C311        C  0.21230259  0.42760181  0.21877787     0.77200
C312        C  0.17909491  0.27466921  0.22678043     0.78300
C313        C  0.05911537  0.30596560  0.22125514     0.77400
Zn314      Zn  0.26252271  0.13877877  0.29700186     1.49700
Zn315      Zn  0.34780688  0.14742709  0.29975438     1.49400
Zn316      Zn  0.33996596  0.22256015  0.30517165     1.49100
Zn317      Zn  0.31168792  0.16426650  0.38048787     1.49500
O318        O  0.31486719  0.16736698  0.32191297    -1.83900
O319        O  0.25496692  0.08523933  0.27289402    -0.74500
O320        O  0.40351250  0.19532187  0.28342817    -0.74400
O321        O  0.29469140  0.23493764  0.29252579    -0.73900
O322        O  0.31825077  0.10858431  0.25447822    -0.74600
O323        O  0.25426613  0.17719747  0.26195666    -0.74200
O324        O  0.38050111  0.23403510  0.26074157    -0.74700
O325        O  0.33013082  0.22214438  0.40034773    -0.74100
O326        O  0.35640760  0.11554374  0.34271062    -0.74900
O327        O  0.37245837  0.25774204  0.35154265    -0.74300
O328        O  0.35012578  0.14392309  0.39894404    -0.74700
O329        O  0.25201198  0.12470218  0.39600422    -0.74700
O330        O  0.21955540  0.12137197  0.33917581    -0.74400
C331        C  0.28243319  0.07931685  0.25845290     0.77300
C332        C  0.40976866  0.22774171  0.26666119     0.77800
C333        C  0.26182385  0.21172346  0.27425303     0.76800
C334        C  0.35558966  0.25603214  0.38492960     0.77200
C335        C  0.36357873  0.12391305  0.37999123     0.78300
C336        C  0.21927276  0.11209647  0.37593213     0.77400
C337        C  0.00306514  0.41654359  0.35208344    -0.26100
C338        C  0.48360144  0.43254294  0.32558344    -0.14200
C339        C  0.46396516  0.41224993  0.28996208     0.36400
C340        C  0.46893979  0.38087542  0.27576079    -0.25600
C341        C  0.49305810  0.36906885  0.29655652    -0.14800
C342        C  0.00712026  0.38372459  0.34047523     0.37500
N343        N  0.02081847  0.36573762  0.36945682    -0.89000
H344        H  0.01081709  0.42808521  0.38250147     0.18600
H345        H  0.45354528  0.36530906  0.24838645     0.18600
N346        N  0.43965879  0.42400193  0.26756104    -0.88100
H347        H  0.04679001  0.36686922  0.35811731     0.36000
H348        H  0.99868885  0.33565128  0.37261534     0.41100
H349        H  0.41063523  0.39925288  0.26545595     0.40700
H350        H  0.45140213  0.43166835  0.23840197     0.35600
C351        C  0.06429111  0.11254224  0.35324657    -0.26100
C352        C  0.05778207  0.07720034  0.33410028    -0.14200
C353        C  0.08452482  0.07960690  0.30367873     0.36400
C354        C  0.11638335  0.11694508  0.29240821    -0.25600
C355        C  0.12255088  0.15240913  0.31092641    -0.14800
C356        C  0.09642479  0.15010402  0.34207964     0.37500
N357        N  0.10236122  0.18505388  0.36333897    -0.89000
H358        H  0.04437275  0.11074250  0.37711607     0.18600
H359        H  0.13639133  0.11829015  0.26857008     0.18600
N360        N  0.07862247  0.04440525  0.28291259    -0.88100
H361        H  0.10076248  0.20458878  0.34268707     0.36000
H362        H  0.13122751  0.19924715  0.37582677     0.41100
H363        H  0.10460400  0.04240938  0.28653422     0.40700
H364        H  0.07517569  0.04791431  0.25217612     0.35600
C365        C  0.37885393  0.02093216  0.27197162    -0.26100
C366        C  0.33648049  0.49722074  0.30321557    -0.14200
C367        C  0.33594556  0.46739029  0.32858463     0.36400
C368        C  0.37264537  0.47069310  0.34048919    -0.25600
C369        C  0.40977412  0.50426153  0.33028412    -0.14800
C370        C  0.41438015  0.02476562  0.28754543     0.37500
N371        N  0.45155029  0.04907426  0.26677348    -0.89000
H372        H  0.38021929  0.03740194  0.24498109     0.18600
H373        H  0.37215298  0.44699826  0.35831695     0.18600
N374        N  0.29932729  0.43406100  0.34349923    -0.88100
H375        H  0.45647104  0.07828888  0.26552026     0.36000
H376        H  0.44855545  0.03830730  0.23725304     0.41100
H377        H  0.27438447  0.43677393  0.33628420     0.40700
H378        H  0.30076752  0.43504677  0.37500229     0.35600
C379        C  0.17085248  0.45758685  0.38239398    -0.26100
C380        C  0.14836026  0.47075773  0.36084185    -0.14200
C381        C  0.13002074  0.45219750  0.32398408     0.36400
C382        C  0.13276819  0.41931321  0.31059997    -0.25600
C383        C  0.15345110  0.40487158  0.33332313    -0.14800
C384        C  0.17353161  0.42472194  0.36893597     0.37500
N385        N  0.19524784  0.41057810  0.39236030    -0.89000
H386        H  0.18363221  0.97011606  0.41319388     0.18600
H387        H  0.11880358  0.40492389  0.28245424     0.18600
N388        N  0.10948719  0.46672336  0.29924429    -0.88100
H389        H  0.18268285  0.40365181  0.42125067     0.36000
H390        H  0.22497676  0.43391075  0.39501193     0.41100
H391        H  0.12941939  0.49681246  0.29262161     0.40700
H392        H  0.08522065  0.46482825  0.31536105     0.35600
C393        C  0.01300305  0.19529696  0.32704429    -0.26100
C394        C  0.00300957  0.19479016  0.36775041    -0.14200
C395        C  0.02522027  0.22835322  0.39245806     0.36400
C396        C  0.05814498  0.26208374  0.37599307    -0.25600
C397        C  0.06927992  0.26228845  0.33566874    -0.14800
C398        C  0.04651971  0.22858679  0.31067959     0.37500
N399        N  0.05615999  0.22708338  0.26904198    -0.89000
H400        H  0.49603474  0.16720448  0.30938361     0.18600
H401        H  0.07622041  0.28783859  0.39509081     0.18600
N402        N  0.01496452  0.22743016  0.43432588    -0.88100
H403        H  0.06017404  0.20238007  0.26525305     0.36000
H404        H  0.08323053  0.25228034  0.26102752     0.41100
H405        H  0.49047340  0.22802475  0.43494750     0.40700
H406        H  0.03519952  0.25430526  0.44858254     0.35600
C407        C  0.20874582  0.30028343  0.37153693    -0.26100
C408        C  0.21209393  0.32054241  0.33540155    -0.14200
C409        C  0.24943588  0.34102594  0.31521388     0.36400
C410        C  0.28287156  0.34192758  0.33265916    -0.25600
C411        C  0.27969325  0.32294104  0.36951547    -0.14800
C412        C  0.24237145  0.30153693  0.38909585     0.37500
N413        N  0.23926404  0.28329652  0.42772208    -0.89000
H414        H  0.18017920  0.28521454  0.38725599     0.18600
H415        H  0.31169715  0.35783107  0.31748203     0.18600
N416        N  0.25476107  0.36142060  0.27754334    -0.88100
H417        H  0.24380199  0.25899217  0.42337271     0.36000
H418        H  0.21016584  0.27136542  0.43927393     0.41100
H419        H  0.22793686  0.35859872  0.26712136     0.40700
H420        H  0.26366910  0.34745417  0.25606496     0.35600
C421        C  0.32264243  0.07287177  0.68529197    -0.26100
C422        C  0.33373687  0.10503642  0.65888282    -0.14200
C423        C  0.34917060  0.10447334  0.62043710     0.36400
C424        C  0.35023347  0.07022861  0.60802286    -0.25600
C425        C  0.33543136  0.03650516  0.63300771    -0.14800
C426        C  0.32338911  0.03858615  0.67277706     0.37500
N427        N  0.31167800  0.00641296  0.70083781    -0.89000
H428        H  0.31195445  0.07376425  0.71519092     0.18600
H429        H  0.37094773  0.57332685  0.58279345     0.18600
N430        N  0.36122422  0.13755879  0.59322763    -0.88100
H431        H  0.33514316  0.00016540  0.70311313     0.36000
H432        H  0.28626599  0.98091827  0.68994801     0.41100
H433        H  0.33557324  0.13907139  0.58569926     0.40700
H434        H  0.37216761  0.13246804  0.56628569     0.35600
C435        C  0.40350249  0.26442446  0.68399998    -0.26100
C436        C  0.36983870  0.24498157  0.65882793    -0.14200
C437        C  0.36847420  0.26347901  0.62268844     0.36400
C438        C  0.40275509  0.29899456  0.61040672    -0.25600
C439        C  0.43809070  0.31611245  0.63361881    -0.14800
C440        C  0.43736762  0.30009467  0.67213652     0.37500
N441        N  0.47017878  0.31960673  0.69996767    -0.89000
H442        H  0.40395308  0.25125640  0.71253302     0.18600
H443        H  0.40283685  0.31171636  0.58127744     0.18600
N444        N  0.33331398  0.24489864  0.59744379    -0.88100
H445        H  0.47633684  0.34904175  0.70410558     0.36000
H446        H  0.49570806  0.32027841  0.68821138     0.41100
H447        H  0.33023664  0.21801570  0.58653723     0.40700
H448        H  0.33706639  0.26269830  0.57224998     0.35600
C449        C  0.17401551  0.11836138  0.61433992    -0.26100
C450        C  0.15868573  0.13900491  0.63629548    -0.14200
C451        C  0.17573905  0.15574147  0.67420795     0.36400
C452        C  0.21115912  0.15686410  0.68616131    -0.25600
C453        C  0.22906958  0.14036526  0.66180634    -0.14800
C454        C  0.20886635  0.11842196  0.62700528     0.37500
N455        N  0.22558307  0.09924683  0.60285809    -0.89000
H456        H  0.16041127  0.10449819  0.58577380     0.18600
H457        H  0.22548567  0.17190078  0.71391964     0.18600
N458        N  0.15757432  0.17116296  0.70131472    -0.88100
H459        H  0.20792252  0.08604301  0.57726337     0.36000
H460        H  0.22411553  0.07576375  0.61989878     0.41100
H461        H  0.12780651  0.14877321  0.70628935     0.40700
H462        H  0.15762010  0.19588330  0.68859105     0.35600
C463        C  0.47640704  0.09279766  0.64585861    -0.26100
C464        C  0.46006135  0.05943746  0.67121886    -0.14200
C465        C  0.94138546  0.06020388  0.70273764     0.36400
C466        C  0.94190534  0.09549508  0.71446182    -0.25600
C467        C  0.46084965  0.12956267  0.69528181    -0.14800
C468        C  0.47641128  0.12770773  0.65733688     0.37500
N469        N  0.49316469  0.16159535  0.63094392    -0.89000
H470        H  0.49071791  0.09232300  0.61788172     0.18600
H471        H  0.92820893  0.09622195  0.74280786     0.18600
N472        N  0.92338141  0.02561256  0.72849366    -0.88100
H473        H  0.47767218  0.15268654  0.60352465     0.36000
H474        H  0.52313420  0.16990383  0.62549362     0.41100
H475        H  0.89961095  0.00237204  0.71265552     0.40700
H476        H  0.91074579  0.03101079  0.75399514     0.35600
C477        C  0.11543037  0.03775826  0.71934349    -0.26100
C478        C  0.13106360  0.51944237  0.69328322    -0.14200
C479        C  0.11313731  0.50232784  0.65585630     0.36400
C480        C  0.07774339  0.50169116  0.64449899    -0.25600
C481        C  0.06102586  0.51916661  0.66903768    -0.14800
C482        C  0.08040954  0.03762468  0.70718070     0.37500
N483        N  0.06260879  0.05480075  0.73273356    -0.89000
H484        H  0.12873111  0.05042334  0.74837614     0.18600
H485        H  0.06223215  0.48614459  0.61721792     0.18600
N486        N  0.13030626  0.48461873  0.63023468    -0.88100
H487        H  0.08055587  0.06822634  0.75812478     0.36000
H488        H  0.03525685  0.03141750  0.74333773     0.41100
H489        H  0.15879036  0.50739409  0.62151629     0.40700
H490        H  0.11349180  0.47354913  0.60378000     0.35600
C491        C  0.38591555  0.36869919  0.71663499    -0.26100
C492        C  0.35207580  0.35022540  0.69149937    -0.14200
C493        C  0.35449696  0.36469537  0.65174795     0.36400
C494        C  0.38902255  0.39967452  0.63966982    -0.25600
C495        C  0.42145670  0.41981680  0.66611664    -0.14800
C496        C  0.42057821  0.40347824  0.70424558     0.37500
N497        N  0.45370490  0.42381814  0.73154921    -0.89000
H498        H  0.38453854  0.35760863  0.74694555     0.18600
H499        H  0.38999330  0.41193347  0.61006418     0.18600
N500        N  0.32265664  0.34443896  0.62303317    -0.88100
H501        H  0.46364852  0.40399942  0.73954883     0.36000
H502        H  0.44324889  0.43097373  0.75764672     0.41100
H503        H  0.29710644  0.34489583  0.63280825     0.40700
H504        H  0.31598894  0.31463073  0.62090790     0.35600
C505        C  0.05033085  0.30901993  0.84652154    -0.26100
C506        C  0.07646295  0.33587597  0.81768754    -0.14200
C507        C  0.06892868  0.36571015  0.80200991     0.36400
C508        C  0.03550890  0.36784426  0.81555323    -0.25600
C509        C  0.01005885  0.34132829  0.84500247    -0.14800
C510        C  0.01792976  0.31203853  0.86091771     0.37500
N511        N  0.99374795  0.28608951  0.89281655    -0.89000
H512        H  0.05617485  0.28670775  0.85968439     0.18600
H513        H  0.52582547  0.38682820  0.80213198     0.18600
N514        N  0.09400718  0.39362266  0.77194091    -0.88100
H515        H  0.01243867  0.29038510  0.91748333     0.36000
H516        H  0.48506141  0.25936818  0.89054896     0.41100
H517        H  0.09590143  0.37753383  0.74742849     0.40700
H518        H  0.12264361  0.41188241  0.78399001     0.35600
C519        C  0.11422230  0.18709272  0.81632480    -0.26100
C520        C  0.13867807  0.18781900  0.84802257    -0.14200
C521        C  0.16670612  0.22466227  0.86574545     0.36400
C522        C  0.17018980  0.26014259  0.85137165    -0.25600
C523        C  0.14549884  0.25964573  0.82013066    -0.14800
C524        C  0.11743145  0.22293186  0.80225853     0.37500
N525        N  0.09279021  0.22209046  0.76949353    -0.89000
H526        H  0.09313337  0.15887854  0.80221388     0.18600
H527        H  0.19129595  0.28811747  0.86590161     0.18600
N528        N  0.19125770  0.22599747  0.89895036    -0.88100
H529        H  0.06272294  0.20380481  0.77780151     0.36000
H530        H  0.09850878  0.20888907  0.74465441     0.41100
H531        H  0.18562444  0.23970269  0.92338544     0.40700
H532        H  0.22139955  0.24390803  0.89064853     0.35600
C533        C  0.29387397  0.44755231  0.81834630    -0.26100
C534        C  0.29151940  0.47114402  0.84937360    -0.14200
C535        C  0.25383059  0.46148941  0.86582103     0.36400
C536        C  0.21917714  0.42882539  0.85053986    -0.25600
C537        C  0.22129369  0.40465860  0.82018314    -0.14800
C538        C  0.25879973  0.41409819  0.80347829     0.37500
N539        N  0.26099066  0.39002520  0.77148614    -0.89000
H540        H  0.32291182  0.45549502  0.80559263     0.18600
H541        H  0.19039244  0.42109100  0.86383474     0.18600
N542        N  0.25194180  0.98591130  0.90224948    -0.88100
H543        H  0.29085318  0.40100621  0.76271689     0.36000
H544        H  0.24610542  0.39303693  0.74651826     0.41100
H545        H  0.26588471  0.98145232  0.92722491     0.40700
H546        H  0.22205797  0.97553965  0.91038866     0.35600
C547        C  0.17323339  0.06236251  0.15152566    -0.26100
C548        C  0.17508157  0.04205180  0.11717185    -0.14200
C549        C  0.21116049  0.05758478  0.09502395     0.36400
C550        C  0.24556962  0.09075649  0.10969937    -0.25600
C551        C  0.24480461  0.10917061  0.14591678    -0.14800
C552        C  0.20788289  0.09608714  0.16596736     0.37500
N553        N  0.20509305  0.11514414  0.20182546    -0.89000
H554        H  0.14529331  0.05093330  0.16810678     0.18600
H555        H  0.27350852  0.10154283  0.09325906     0.18600
N556        N  0.21878692  0.54818074  0.04963277    -0.88100
H557        H  0.21509051  0.14516834  0.19512265     0.36000
H558        H  0.22419204  0.11368627  0.22321621     0.41100
H559        H  0.19719657  0.54859970  0.03077116     0.40700
H560        H  0.21284554  0.51868816  0.05188702     0.35600
C561        C  0.36327437  0.30301021  0.11728803    -0.26100
C562        C  0.34870252  0.32152967  0.14343456    -0.14200
C563        C  0.33549798  0.30561098  0.18254933     0.36400
C564        C  0.33265810  0.26895476  0.19244296    -0.25600
C565        C  0.34391166  0.24882446  0.16485619    -0.14800
C566        C  0.36086650  0.26684089  0.12751795     0.37500
N567        N  0.37307707  0.24760459  0.09820953    -0.89000
H568        H  0.37353430  0.31496847  0.08731335     0.18600
H569        H  0.32062074  0.25558376  0.22131668     0.18600
N570        N  0.32368298  0.32507538  0.21221246    -0.88100
H571        H  0.34848852  0.21950072  0.09133389     0.36000
H572        H  0.39574902  0.24358291  0.11079189     0.41100
H573        H  0.32926950  0.35302748  0.20213125     0.40700
H574        H  0.34208969  0.33084879  0.23748158     0.35600
C575        C  0.41181565  0.15413317  0.19240683    -0.26100
C576        C  0.38324866  0.14794371  0.16289424    -0.14200
C577        C  0.38669439  0.13531356  0.12399997     0.36400
C578        C  0.41972606  0.13102023  0.11459050    -0.25600
C579        C  0.44993830  0.14008671  0.14316076    -0.14800
C580        C  0.44532745  0.15048734  0.18291318     0.37500
N581        N  0.47420788  0.15774055  0.21386158    -0.89000
H582        H  0.40859476  0.16271011  0.22250252     0.18600
H583        H  0.42328462  0.12351088  0.08388276     0.18600
N584        N  0.35805353  0.12939003  0.09321970    -0.88100
H585        H  0.50183768  0.18212029  0.20559040     0.36000
H586        H  0.47758629  0.13253231  0.21595015     0.41100
H587        H  0.34581066  0.10009295  0.08233954     0.40700
H588        H  0.37333908  0.14900866  0.06950039     0.35600
C589        C  0.02365195  0.62400338  0.08228184     0.03300
C590        C  0.05630926  0.66419046  0.07901110    -0.12800
C591        C  0.05484527  0.69546641  0.10054356     0.00800
C592        C  0.02084070  0.68584748  0.12389966    -0.11300
C593        C  0.48827946  0.64530245  0.12867560     0.03300
C594        C  0.49011558  0.61477044  0.10815897    -0.10800
H595        H  0.08166107  0.67096741  0.05968363     0.08900
H596        H  0.01816333  0.70940011  0.13908148     0.06500
H597        H  0.46421801  0.58476125  0.10905281     0.06300
C598        C  0.36056970  0.90794099  0.07936920     0.03300
C599        C  0.36919289  0.88201887  0.10111462    -0.12800
C600        C  0.33919882  0.84971027  0.12221729     0.00800
C601        C  0.30020108  0.84364442  0.12251889    -0.11300
C602        C  0.29014827  0.86924777  0.10171530     0.03300
C603        C  0.32077648  0.90177123  0.07970004    -0.10800
H604        H  0.39910590  0.88571915  0.09990360     0.08900
H605        H  0.27729325  0.81818793  0.13904527     0.06500
H606        H  0.31379689  0.92158389  0.06290941     0.06300
C607        C  0.07607456  0.96468250  0.07317146     0.03300
C608        C  0.08012246  0.92982746  0.07461655    -0.12800
C609        C  0.11470130  0.93210377  0.09298370     0.00800
C610        C  0.14405108  0.96907943  0.10887226    -0.11300
C611        C  0.14055488  0.00319078  0.10611660     0.03300
C612        C  0.10623393  0.00073514  0.08965702    -0.10800
H613        H  0.05720497  0.90192078  0.06151623     0.08900
H614        H  0.17062753  0.97188181  0.12345591     0.06500
H615        H  0.10867438  0.52900871  0.08010262     0.06300
C616        C  0.35220202  0.65715675  0.17267281     0.80400
N617        N  0.36204031  0.69615379  0.17512947    -0.77900
C618        C  0.33299333  0.70634816  0.17249955     0.82900
N619        N  0.29431457  0.67753163  0.16542187    -0.77800
C620        C  0.28454735  0.63865120  0.16237441     0.83000
N621        N  0.31369687  0.62882993  0.16530894    -0.79500
C622        C  0.38883616  0.53675054  0.90522619     0.03300
C623        C  0.38813538  0.57347862  0.90625255    -0.12800
C624        C  0.35661309  0.57589705  0.88640435     0.00800
C625        C  0.32837719  0.54303895  0.86421976    -0.11300
C626        C  0.32791791  0.50689926  0.86418017     0.03300
C627        C  0.35838650  0.50392486  0.88372907    -0.10800
H628        H  0.41031552  0.59874267  0.92356877     0.08900
H629        H  0.30460413  0.54469975  0.84825467     0.06500
H630        H  0.35818178  0.97608408  0.88580365     0.06300
C631        C  0.10688784  0.59298403  0.90100574     0.03300
C632        C  0.14493002  0.59502940  0.90268061    -0.12800
C633        C  0.17896864  0.62808832  0.88514187     0.00800
C634        C  0.17409585  0.65706038  0.86479405    -0.11300
C635        C  0.13713657  0.65508759  0.86277822     0.03300
C636        C  0.10355465  0.62304408  0.88020243    -0.10800
H637        H  0.14838963  0.57268185  0.91907984     0.08900
H638        H  0.19982031  0.68262718  0.85123483     0.06500
H639        H  0.07528988  0.62296914  0.87954090     0.06300
C640        C  0.11302213  0.83816018  0.81000999     0.80400
N641        N  0.11148762  0.80223692  0.81069382    -0.77900
C642        C  0.14573720  0.80037825  0.81100358     0.82900
N643        N  0.18177653  0.83466716  0.81259669    -0.77800
C644        C  0.18363764  0.87066702  0.81208882     0.83000
N645        N  0.14910833  0.87222511  0.81161392    -0.79500
C646        C  0.44542428  0.87476719  0.89943573     0.03300
C647        C  0.40844720  0.83772563  0.90058597    -0.12800
C648        C  0.40634791  0.80314888  0.88297543     0.00800
C649        C  0.43980023  0.80653904  0.86291880    -0.11300
C650        C  0.47615612  0.84198832  0.86276464     0.03300
C651        C  0.47875391  0.87624841  0.87976610    -0.10800
H652        H  0.38277788  0.83538845  0.91660801     0.08900
H653        H  0.43814288  0.78054461  0.84829035     0.06500
H654        H  0.50768106  0.90360317  0.87958830     0.06300
Zn655      Zn  0.49781671  0.55530232  0.97066998     1.49700
Zn656      Zn  0.42773013  0.96269934  0.96956224     1.49400
Zn657      Zn  0.01882369  0.98219333  0.96879443     1.49100
Zn658      Zn  0.48409588  0.99871554  0.04734020     1.49500
O659        O  0.48290520  0.00036617  0.98847912    -1.83900
O660        O  0.45182260  0.55780478  0.94019699    -0.74500
O661        O  0.42458195  0.91625693  0.93524738    -0.74400
O662        O  0.06677349  0.52990720  0.93508687    -0.73900
O663        O  0.40820190  0.99399355  0.93831691    -0.74600
O664        O  0.04613716  0.57444572  0.93538200    -0.74200
O665        O  0.48953285  0.93572087  0.93196383    -0.74700
O666        O  0.02411187  0.98093579  0.06842886    -0.74100
O667        O  0.38814145  0.93690442  0.01570355    -0.74900
O668        O  0.04431043  0.96488114  0.01206813    -0.74300
O669        O  0.42822748  0.95946414  0.06930724    -0.74700
O670        O  0.50554119  0.55564300  0.07068385    -0.74700
O671        O  0.01677685  0.59443017  0.01772196    -0.74400
C672        C  0.41751467  0.52924430  0.92905490     0.77300
C673        C  0.45307758  0.91083687  0.92310277     0.77800
C674        C  0.07142173  0.56384833  0.92482670     0.76800
C675        C  0.04487886  0.96807454  0.05028222     0.77200
C676        C  0.39351312  0.93758144  0.05361641     0.78300
C677        C  0.01735569  0.59029005  0.05573199     0.77400
C678        C  0.24014882  0.79413035  0.72452493     0.03300
C679        C  0.27771030  0.82358686  0.71022681    -0.12800
C680        C  0.30997353  0.81675142  0.70700501     0.00800
C681        C  0.30677239  0.78188443  0.72286323    -0.11300
C682        C  0.27173053  0.75356468  0.74252974     0.03300
C683        C  0.23724065  0.75891864  0.74226138    -0.10800
H684        H  0.28111066  0.85152909  0.69898017     0.08900
H685        H  0.33295978  0.77815128  0.72210001     0.06500
H686        H  0.20890070  0.73597844  0.75455910     0.06300
C687        C  0.18684336  0.96489138  0.72647067     0.03300
C688        C  0.15689549  0.97291936  0.71365968    -0.12800
C689        C  0.16261974  0.01157575  0.71343819     0.00800
C690        C  0.19667571  0.54378163  0.72817914    -0.11300
C691        C  0.22569193  0.53737409  0.74673072     0.03300
C692        C  0.22130475  0.49800701  0.74466772    -0.10800
H693        H  0.12938379  0.94880489  0.70079523     0.08900
H694        H  0.20003486  0.57346203  0.72848400     0.06500
H695        H  0.24468067  0.49298622  0.75648081     0.06300
C696        C  0.01462621  0.73690782  0.72757451     0.03300
C697        C  0.48337518  0.74134683  0.74438887    -0.12800
C698        C  0.44359338  0.70683597  0.74621015     0.00800
C699        C  0.43685880  0.67092815  0.72839274    -0.11300
C700        C  0.46823803  0.66749641  0.71156611     0.03300
C701        C  0.00639962  0.69910007  0.71382634    -0.10800
H702        H  0.48870802  0.77003539  0.75552576     0.08900
H703        H  0.40695164  0.64479558  0.72863274     0.06500
H704        H  0.03049221  0.69589290  0.70055309     0.06300
C705        C  0.47186189  0.52911369  0.65852908     0.80400
N706        N  0.44093901  0.98915354  0.66255790    -0.77900
C707        C  0.45069824  0.95987264  0.66243590     0.82900
N708        N  0.48974039  0.96965953  0.66467589    -0.77800
C709        C  0.02037274  0.00863497  0.66208579     0.83000
N710        N  0.00870277  0.53749262  0.66278960    -0.79500
Zn711      Zn  0.28034206  0.61340401  0.85091236     1.49700
Zn712      Zn  0.31402718  0.66678005  0.77087428     1.49400
Zn713      Zn  0.29192876  0.70159186  0.84817376     1.49100
Zn714      Zn  0.36875502  0.68989278  0.84991734     1.49500
O715        O  0.31373089  0.66774762  0.82886530    -1.83900
O716        O  0.26103313  0.56947078  0.80748283    -0.74500
O717        O  0.29537335  0.70663621  0.75096057    -0.74400
O718        O  0.24891374  0.67121314  0.88954248    -0.73900
O719        O  0.27390222  0.60768711  0.75314219    -0.74600
O720        O  0.22753978  0.60799539  0.87194707    -0.74200
O721        O  0.26661179  0.71832152  0.80348480    -0.74700
O722        O  0.37884519  0.73364661  0.89010388    -0.74100
O723        O  0.37298411  0.68466980  0.75262751    -0.74900
O724        O  0.33820900  0.75504373  0.86800709    -0.74300
O725        O  0.41220129  0.71393565  0.80580263    -0.74700
O726        O  0.37575297  0.64390431  0.87185890    -0.74700
O727        O  0.31302621  0.60221235  0.89152990    -0.74400
C728        C  0.25690707  0.57292571  0.76987012     0.77300
C729        C  0.27616144  0.72293185  0.76634049     0.77800
C730        C  0.22054458  0.63507518  0.88494934     0.76800
C731        C  0.37151001  0.76202886  0.88323753     0.77200
C732        C  0.40815575  0.70371394  0.76878070     0.78300
C733        C  0.34935627  0.61030422  0.88627100     0.77400
C734        C  0.06808927  0.62174275  0.57188071     0.03300
C735        C  0.07560518  0.66170675  0.56795424    -0.12800
C736        C  0.10950543  0.69367243  0.58723809     0.00800
C737        C  0.13577749  0.68486657  0.60853589    -0.11300
C738        C  0.12706981  0.64542638  0.61475622     0.03300
C739        C  0.09289627  0.61410320  0.59689113    -0.10800
H740        H  0.05575031  0.66777670  0.54995248     0.08900
H741        H  0.16334367  0.70913041  0.62093784     0.06500
H742        H  0.08738439  0.58375123  0.60001607     0.06300
C743        C  0.00991740  0.90507019  0.57366122     0.03300
C744        C  0.47900414  0.88021790  0.59752251    -0.12800
C745        C  0.47668635  0.84624747  0.61488782     0.00800
C746        C  0.00548730  0.83785104  0.61073288    -0.11300
C747        C  0.04117565  0.86473140  0.59062225     0.03300
C748        C  0.04317085  0.89850419  0.57145324    -0.10800
H749        H  0.45306928  0.88432850  0.59920574     0.08900
H750        H  0.00264035  0.81088114  0.62401571     0.06500
H751        H  0.06976711  0.91893355  0.55461979     0.06300
C752        C  0.35329006  0.96335086  0.57376515     0.03300
C753        C  0.31339846  0.93055184  0.56963784    -0.12800
C754        C  0.28093961  0.93227274  0.58812586     0.00800
C755        C  0.28919332  0.96715808  0.60943523    -0.11300
C756        C  0.32851766  0.99859779  0.61490956     0.03300
C757        C  0.36033642  0.99626360  0.59762737    -0.10800
H758        H  0.30774569  0.90454687  0.55200071     0.08900
H759        H  0.26472397  0.96985379  0.62244262     0.06500
H760        H  0.39341113  0.52286557  0.60089922     0.06300
C761        C  0.32195409  0.63521412  0.66665969     0.80400
N762        N  0.28228169  0.62377419  0.66652405    -0.77900
C763        C  0.27049337  0.65161959  0.66638350     0.82900
N764        N  0.29871537  0.69116065  0.66509296    -0.77800
C765        C  0.33842480  0.70279367  0.66553601     0.83000
N766        N  0.34985925  0.67471208  0.66568686    -0.79500
Zn767      Zn  0.16027352  0.88387678  0.62616796     1.49700
Zn768      Zn  0.14624477  0.83212801  0.71011145     1.49400
Zn769      Zn  0.09207015  0.79314345  0.62629514     1.49100
Zn770      Zn  0.18195508  0.81519016  0.62521276     1.49500
O771        O  0.14512326  0.83108689  0.64874612    -1.83900
O772        O  0.17949268  0.92444109  0.67070742    -0.74500
O773        O  0.08506963  0.79244116  0.73055357    -0.74400
O774        O  0.06708284  0.82041627  0.59534255    -0.73900
O775        O  0.16926075  0.89377888  0.72968368    -0.74600
O776        O  0.11074436  0.88541177  0.60320708    -0.74200
O777        O  0.05387820  0.77020907  0.67179432    -0.74700
O778        O  0.15439341  0.76382604  0.59222642    -0.74100
O779        O  0.18610949  0.81086691  0.72930194    -0.74900
O780        O  0.08941474  0.74269295  0.60057740    -0.74300
O781        O  0.20486017  0.79881445  0.66989060    -0.74700
O782        O  0.23230065  0.86335926  0.60081630    -0.74700
O783        O  0.21040966  0.90637895  0.59130137    -0.74400
C784        C  0.18098738  0.92604480  0.70902112     0.77300
C785        C  0.05285240  0.77034227  0.71005985     0.77800
C786        C  0.07550320  0.85695169  0.59440232     0.76800
C787        C  0.11766520  0.73585074  0.59101130     0.77200
C788        C  0.20640427  0.79900628  0.70815352     0.78300
C789        C  0.23878877  0.89811052  0.59104066     0.77400
C790        C  0.38436743  0.86336784  0.41160662     0.03300
C791        C  0.34753661  0.85982162  0.39996931    -0.12800
C792        C  0.31441484  0.82274537  0.39079983     0.00800
C793        C  0.31701213  0.78830691  0.39364570    -0.11300
C794        C  0.35376223  0.79051384  0.40118180     0.03300
C795        C  0.38813323  0.82839469  0.41008671    -0.10800
H796        H  0.34409051  0.88603046  0.39810680     0.08900
H797        H  0.29122931  0.76000259  0.38450298     0.06500
H798        H  0.41690905  0.83050731  0.41565378     0.06300
C799        C  0.44011227  0.59226667  0.40877681     0.03300
C800        C  0.40120551  0.58801640  0.40383091    -0.12800
C801        C  0.39803864  0.62257945  0.39507767     0.00800
C802        C  0.43274365  0.65954796  0.39043315    -0.11300
C803        C  0.46991023  0.66246829  0.39022713     0.03300
C804        C  0.47388919  0.62976696  0.40022083    -0.10800
H805        H  0.37438081  0.55896911  0.40679651     0.08900
H806        H  0.43071855  0.68558998  0.38134667     0.06500
H807        H  0.50396049  0.63434147  0.40156227     0.06300
C808        C  0.10946962  0.53624189  0.40283492     0.03300
C809        C  0.14527114  0.57440385  0.40124608    -0.12800
C810        C  0.18209956  0.57675766  0.38952992     0.00800
C811        C  0.18233459  0.54193220  0.37872036    -0.11300
C812        C  0.14695403  0.50563694  0.37617946     0.03300
C813        C  0.11097810  0.50258658  0.38854008    -0.10800
H814        H  0.14467293  0.60132123  0.40942859     0.08900
H815        H  0.21002657  0.54357442  0.36848743     0.06500
H816        H  0.08511221  0.97188122  0.39016591     0.06300
C817        C  0.14904537  0.86416815  0.32589901     0.80400
N818        N  0.18164342  0.85952167  0.32803903    -0.77900
C819        C  0.17720965  0.82245060  0.32660657     0.82900
N820        N  0.13996366  0.78992038  0.32430430    -0.77800
C821        C  0.10735273  0.79444751  0.32127894     0.83000
N822        N  0.11185972  0.83156730  0.32322875    -0.79500
Zn823      Zn  0.01477651  0.55220222  0.46274363     1.49700
Zn824      Zn  0.49640159  0.96019313  0.46686904     1.49400
Zn825      Zn  0.47829337  0.99713869  0.54553405     1.49100
Zn826      Zn  0.42402159  0.98014896  0.46597953     1.49500
O827        O  0.47883004  0.99745754  0.48644055    -1.83900
O828        O  0.06388793  0.55625684  0.43185837    -0.74500
O829        O  0.01021458  0.93436106  0.51076776    -0.74400
O830        O  0.01833416  0.55310613  0.56287203    -0.73900
O831        O  0.04628792  0.99059595  0.43278953    -0.74600
O832        O  0.03851771  0.59237731  0.50879134    -0.74200
O833        O  0.49402796  0.95690980  0.56683380    -0.74700
O834        O  0.38365784  0.96414963  0.51131359    -0.74100
O835        O  0.45072369  0.91043800  0.43775484    -0.74900
O836        O  0.42201821  0.98130366  0.56615919    -0.74300
O837        O  0.40454822  0.92901208  0.43470683    -0.74700
O838        O  0.42035796  0.52577512  0.43436732    -0.74700
O839        O  0.48508386  0.57186400  0.43312303    -0.74400
C840        C  0.07104203  0.52823146  0.42243551     0.77300
C841        C  0.00633074  0.93500461  0.54882711     0.77800
C842        C  0.03885056  0.58768017  0.54673991     0.76800
C843        C  0.38772100  0.96817877  0.54935052     0.77200
C844        C  0.41553451  0.90320936  0.42801925     0.78300
C845        C  0.44842954  0.56097358  0.42541249     0.77400
C846        C  0.24137305  0.96552583  0.24099142     0.03300
C847        C  0.27307831  0.96316280  0.25933762    -0.12800
C848        C  0.30622736  0.99725791  0.27514787     0.00800
C849        C  0.29786171  0.53049683  0.28542161    -0.11300
C850        C  0.27062411  0.53501168  0.26132908     0.03300
C851        C  0.24297747  0.00337017  0.23932247    -0.10800
H852        H  0.27328312  0.93519825  0.25880907     0.08900
H853        H  0.31975531  0.55575819  0.30280296     0.06500
H854        H  0.21902587  0.00584950  0.22490926     0.06300
C855        C  0.18652339  0.75018385  0.25445870     0.03300
C856        C  0.22279656  0.74870337  0.25254358    -0.12800
C857        C  0.22609296  0.71889612  0.27421107     0.00800
C858        C  0.19342505  0.69128625  0.29693322    -0.11300
C859        C  0.15697192  0.69070531  0.29690756     0.03300
C860        C  0.15400986  0.72105500  0.27698815    -0.10800
H861        H  0.24719877  0.76933133  0.23341873     0.08900
H862        H  0.19514286  0.66755670  0.31244490     0.06500
H863        H  0.12537777  0.71982419  0.27589372     0.06300
C864        C  0.02184831  0.79849989  0.24508359     0.03300
C865        C  0.02510708  0.83186342  0.26578844    -0.12800
C866        C  0.49311366  0.83236122  0.28448382     0.00800
C867        C  0.45575480  0.79777575  0.28270663    -0.11300
C868        C  0.45000436  0.76342409  0.26245404     0.03300
C869        C  0.48353559  0.76434179  0.24302883    -0.10800
H870        H  0.05295268  0.86021773  0.26483497     0.08900
H871        H  0.43047984  0.79813469  0.29695959     0.06500
H872        H  0.47962562  0.73843540  0.22633069     0.06300
C873        C  0.44977164  0.00448879  0.33687093     0.80400
N874        N  0.45016758  0.96957928  0.33765949    -0.77900
C875        C  0.48539603  0.96952199  0.33957937     0.82900
N876        N  0.02013476  0.50497125  0.33942897    -0.77800
C877        C  0.01926772  0.53973215  0.33955498     0.83000
N878        N  0.48321840  0.53935465  0.34117384    -0.79500
Zn879      Zn  0.09593584  0.81611289  0.13788494     1.49700
Zn880      Zn  0.16804838  0.79631879  0.14188914     1.49400
Zn881      Zn  0.18906765  0.88740916  0.13642053     1.49100
Zn882      Zn  0.14966919  0.83807819  0.21839211     1.49500
O883        O  0.15060884  0.83446453  0.15912956    -1.83900
O884        O  0.07677365  0.76472520  0.10518399    -0.74500
O885        O  0.22095216  0.82431925  0.11262571    -0.74400
O886        O  0.15903556  0.90672367  0.10139644    -0.73900
O887        O  0.12277590  0.74621536  0.11433951    -0.74600
O888        O  0.09372789  0.86355488  0.11073748    -0.74200
O889        O  0.24000913  0.88912979  0.11191552    -0.74700
O890        O  0.18986970  0.89620215  0.23751659    -0.74100
O891        O  0.18236547  0.77396565  0.18990760    -0.74900
O892        O  0.21245025  0.93010687  0.18028961    -0.74300
O893        O  0.16571014  0.79851686  0.24238618    -0.74700
O894        O  0.09231248  0.82216907  0.23768149    -0.74700
O895        O  0.05391611  0.79850288  0.18316471    -0.74400
C896        C  0.08751295  0.73811570  0.10394002     0.77300
C897        C  0.24787298  0.86081589  0.10699185     0.77800
C898        C  0.12218837  0.89799742  0.09992229     0.82800
C899        C  0.21157312  0.92911294  0.21863460     0.77200
C900        C  0.17878812  0.77645100  0.22771264     0.78300
C901        C  0.05762800  0.80542141  0.22095135     0.77400
Zn902      Zn  0.26080389  0.63903763  0.29773254     1.49700
Zn903      Zn  0.34619467  0.64706367  0.29698569     1.49400
Zn904      Zn  0.33838742  0.72282725  0.30480397     1.49100
Zn905      Zn  0.31106846  0.66317001  0.37955267     1.49500
O906        O  0.31400317  0.66735458  0.32092416    -1.83900
O907        O  0.25148071  0.58432380  0.27598283    -0.74500
O908        O  0.40120416  0.69501608  0.27866198    -0.74400
O909        O  0.29296232  0.73459739  0.29115577    -0.73900
O910        O  0.31357493  0.60481406  0.25471028    -0.74600
O911        O  0.25271552  0.67653581  0.26096164    -0.74200
O912        O  0.37946069  0.73616610  0.26072993    -0.74700
O913        O  0.33026098  0.72042641  0.40137555    -0.74100
O914        O  0.35949046  0.61867984  0.33987850    -0.74900
O915        O  0.36994847  0.75801764  0.35167883    -0.74300
O916        O  0.34773191  0.64114849  0.39749737    -0.74700
O917        O  0.25204057  0.62398895  0.39573072    -0.74700
O918        O  0.21889139  0.62415048  0.34086067    -0.74400
C919        C  0.27747525  0.57665099  0.26078360     0.77300
C920        C  0.40816470  0.72873239  0.26472082     0.77800
C921        C  0.26027165  0.71126786  0.27268197     0.76800
C922        C  0.35462314  0.75488088  0.38633224     0.77200
C923        C  0.36327622  0.62347507  0.37791384     0.78300
C924        C  0.21906083  0.61300851  0.37678378     0.77400
C925        C  0.00549902  0.91702211  0.34984233    -0.26100
C926        C  0.48607992  0.93328458  0.32712349    -0.14200
C927        C  0.47105823  0.91650112  0.28873129     0.36400
C928        C  0.47575690  0.88478967  0.27503537    -0.25600
C929        C  0.49457292  0.86912703  0.29894721    -0.14800
C930        C  0.00880068  0.88421877  0.33648733     0.37500
N931        N  0.02796874  0.86876389  0.36193051    -0.89000
H932        H  0.01751892  0.93020780  0.37897036     0.18600
H933        H  0.46386862  0.87149232  0.24577489     0.18600
N934        N  0.45203127  0.93237854  0.26327594    -0.88100
H935        H  0.05207507  0.86991699  0.34610883     0.36000
H936        H  0.00732580  0.83872944  0.36805848     0.41100
H937        H  0.42396861  0.92409102  0.27583202     0.40700
H938        H  0.44610563  0.91898025  0.23473383     0.35600
C939        C  0.06460072  0.61257309  0.35334782    -0.26100
C940        C  0.05656918  0.57780265  0.33208296    -0.14200
C941        C  0.08181352  0.58057021  0.29996578     0.36400
C942        C  0.11356096  0.61793389  0.28881261    -0.25600
C943        C  0.12101673  0.65298023  0.30919642    -0.14800
C944        C  0.09643458  0.65023152  0.34207826     0.37500
N945        N  0.10367700  0.68481151  0.36490263    -0.89000
H946        H  0.04645841  0.61020229  0.37915183     0.18600
H947        H  0.13259075  0.61963502  0.26380567     0.18600
N948        N  0.07462833  0.54564112  0.27773099    -0.88100
H949        H  0.10136141  0.70487176  0.34554004     0.36000
H950        H  0.13306473  0.69851187  0.37604819     0.41100
H951        H  0.10045412  0.54311983  0.27957837     0.40700
H952        H  0.07013047  0.54987418  0.24746248     0.35600
C953        C  0.37379454  0.53088335  0.29355176    -0.26100
C954        C  0.34180609  0.99647907  0.29087016    -0.14200
C955        C  0.34045590  0.97533248  0.32614721     0.36400
C956        C  0.37604773  0.97858931  0.34131331    -0.25600
C957        C  0.41313278  0.00375111  0.32272672    -0.14800
C958        C  0.40997222  0.53516774  0.30755537     0.37500
N959        N  0.44687057  0.57030022  0.29681826    -0.89000
H960        H  0.37516771  0.55411621  0.27412550     0.18600
H961        H  0.37487171  0.96190279  0.36802890     0.18600
N962        N  0.30384383  0.95188304  0.34802669    -0.88100
H963        H  0.44579801  0.59528935  0.30756325     0.36000
H964        H  0.44870194  0.57195972  0.26537222     0.41100
H965        H  0.28321258  0.92910231  0.32926775     0.40700
H966        H  0.29214431  0.97034297  0.35586654     0.35600
C967        C  0.16962472  0.95551570  0.38498559    -0.26100
C968        C  0.14872662  0.96955110  0.36202334    -0.14200
C969        C  0.13119085  0.95112037  0.32488921     0.36400
C970        C  0.13330236  0.91765479  0.31237605    -0.25600
C971        C  0.15280170  0.90265152  0.33620159    -0.14800
C972        C  0.17163105  0.92200639  0.37247448     0.37500
N973        N  0.19113298  0.90660615  0.39757157    -0.89000
H974        H  0.18576339  0.47245877  0.41019568     0.18600
H975        H  0.11947816  0.90308557  0.28417388     0.18600
N976        N  0.11189217  0.96622305  0.29914871    -0.88100
H977        H  0.17713137  0.89992512  0.42580421     0.36000
H978        H  0.22102968  0.92918456  0.40151364     0.41100
H979        H  0.13264171  0.99603604  0.29231110     0.40700
H980        H  0.08781559  0.96539441  0.31469534     0.35600
C981        C  0.01341044  0.69310421  0.31732942    -0.26100
C982        C  0.00116307  0.69065654  0.35747229    -0.14200
C983        C  0.02125291  0.72329033  0.38365477     0.36400
C984        C  0.05456020  0.75797832  0.36972690    -0.25600
C985        C  0.06832888  0.76008550  0.33019155    -0.14800
C986        C  0.04737435  0.72754591  0.30328372     0.37500
N987        N  0.05895216  0.72859655  0.26188073    -0.89000
H988        H  0.49663192  0.66819333  0.31552673     0.18600
H989        H  0.07086903  0.78277524  0.39046594     0.18600
N990        N  0.00831119  0.72076920  0.42463025    -0.88100
H991        H  0.06308714  0.70415891  0.25673791     0.36000
H992        H  0.08632933  0.75431316  0.25580778     0.41100
H993        H  0.48274416  0.73236748  0.43433802     0.40700
H994        H  0.03222365  0.72580145  0.44345818     0.35600
C995        C  0.20681590  0.79454320  0.37184079    -0.26100
C996        C  0.21121244  0.81759253  0.33755045    -0.14200
C997        C  0.24927072  0.84016515  0.31912387     0.36400
C998        C  0.28255284  0.84141987  0.33733497    -0.25600
C999        C  0.27843852  0.82030395  0.37298930    -0.14800
C1000       C  0.24025830  0.79591513  0.38986377     0.37500
N1001       N  0.23567625  0.77398235  0.42618421    -0.89000
H1002       H  0.17769231  0.77735779  0.38618394     0.18600
H1003       H  0.31191532  0.85906656  0.32357702     0.18600
N1004       N  0.25537889  0.86216032  0.28236408    -0.88100
H1005       H  0.21587169  0.74365739  0.42025631     0.36000
H1006       H  0.22246402  0.78345076  0.44794694     0.41100
H1007       H  0.22854230  0.85881440  0.27113669     0.40700
H1008       H  0.26587217  0.84986443  0.26065091     0.35600
C1009       C  0.31866643  0.57105693  0.68350832    -0.26100
C1010       C  0.33381461  0.60497192  0.65887443    -0.14200
C1011       C  0.35530530  0.60692650  0.62359496     0.36400
C1012       C  0.35712648  0.57297951  0.61142460    -0.25600
C1013       C  0.33783495  0.53740352  0.63382395    -0.14800
C1014       C  0.32089662  0.53743400  0.67167631     0.37500
N1015       N  0.30619864  0.50410912  0.69877629    -0.89000
H1016       H  0.30393893  0.57018832  0.71147545     0.18600
H1017       H  0.35987151  0.06871038  0.57764325     0.18600
N1018       N  0.37284235  0.64228775  0.59890111    -0.88100
H1019       H  0.32920595  0.49760989  0.70385216     0.36000
H1020       H  0.28178964  0.47904731  0.68594589     0.41100
H1021       H  0.34939212  0.64539905  0.58685314     0.40700
H1022       H  0.38812174  0.63895487  0.57441897     0.35600
C1023       C  0.40117696  0.76499711  0.68351970    -0.26100
C1024       C  0.36894309  0.74445341  0.65680690    -0.14200
C1025       C  0.36978131  0.76106926  0.61875570     0.36400
C1026       C  0.40450405  0.79631933  0.60688974    -0.25600
C1027       C  0.43833037  0.81475234  0.63216549    -0.14800
C1028       C  0.43576803  0.80009124  0.67171036     0.37500
N1029       N  0.46766784  0.82017489  0.70038167    -0.89000
H1030       H  0.40008439  0.75293273  0.71316289     0.18600
H1031       H  0.40621363  0.80791111  0.57676180     0.18600
N1032       N  0.33643374  0.74081550  0.59142631    -0.88100
H1033       H  0.47426814  0.84990221  0.70274858     0.36000
H1034       H  0.49325693  0.82000952  0.69006303     0.41100
H1035       H  0.33438504  0.71362741  0.58324400     0.40700
H1036       H  0.34174852  0.75724707  0.56483646     0.35600
C1037       C  0.17244905  0.61700860  0.61261449    -0.26100
C1038       C  0.15721381  0.63780600  0.63447298    -0.14200
C1039       C  0.17451331  0.65478488  0.67224684     0.36400
C1040       C  0.21009184  0.65612252  0.68401565    -0.25600
C1041       C  0.22801281  0.63963895  0.65965121    -0.14800
C1042       C  0.20751163  0.61731397  0.62512966     0.37500
N1043       N  0.22407402  0.59790582  0.60113574    -0.89000
H1044       H  0.15860620  0.60283889  0.58423019     0.18600
H1045       H  0.22450435  0.67128512  0.71166770     0.18600
N1046       N  0.15646429  0.67028666  0.69940379    -0.88100
H1047       H  0.20614965  0.58432116  0.57577548     0.36000
H1048       H  0.22285082  0.57469579  0.61845236     0.41100
H1049       H  0.12672752  0.64792381  0.70454091     0.40700
H1050       H  0.15645524  0.69496623  0.68664277     0.35600
C1051       C  0.47836370  0.59460736  0.64307889    -0.26100
C1052       C  0.46167085  0.56033277  0.66718844    -0.14200
C1053       C  0.93853816  0.55735817  0.70546350     0.36400
C1054       C  0.93950435  0.59260466  0.71816963    -0.25600
C1055       C  0.46101971  0.62934848  0.69339299    -0.14800
C1056       C  0.47745749  0.62884149  0.65550196     0.37500
N1057       N  0.49406728  0.66342167  0.63003801    -0.89000
H1058       H  0.49341462  0.59528498  0.61521132     0.18600
H1059       H  0.92660249  0.59323376  0.74706436     0.18600
N1060       N  0.92032394  0.52221859  0.73044893    -0.88100
H1061       H  0.47880910  0.65506364  0.60247038     0.36000
H1062       H  0.52418833  0.67226305  0.62462029     0.41100
H1063       H  0.89605526  0.49973140  0.71446250     0.40700
H1064       H  0.90826993  0.52740886  0.75656647     0.35600
C1065       C  0.11650788  0.54039929  0.71586389    -0.26100
C1066       C  0.13126740  0.01848614  0.69600352    -0.14200
C1067       C  0.11433894  0.00238564  0.65793939     0.36400
C1068       C  0.07912771  0.00183026  0.64604119    -0.25600
C1069       C  0.06148497  0.01812308  0.67088531    -0.14800
C1070       C  0.08150330  0.54049466  0.70405560     0.37500
N1071       N  0.06529089  0.55971028  0.72889954    -0.89000
H1072       H  0.13072011  0.55422441  0.74423832     0.18600
H1073       H  0.06451020  0.98730681  0.61804299     0.18600
N1074       N  0.13225760  0.98545235  0.63226397    -0.88100
H1075       H  0.08447553  0.57458737  0.75314813     0.36000
H1076       H  0.03833891  0.53733248  0.74130676     0.41100
H1077       H  0.16084773  0.00854155  0.62427566     0.40700
H1078       H  0.11597289  0.97475957  0.60544584     0.35600
C1079       C  0.38232083  0.86425927  0.71607296    -0.26100
C1080       C  0.34857946  0.84835580  0.69075189    -0.14200
C1081       C  0.35163208  0.86554277  0.65229437     0.36400
C1082       C  0.38669039  0.90079521  0.64209230    -0.25600
C1083       C  0.41896516  0.91854654  0.66906020    -0.14800
C1084       C  0.41750552  0.89932149  0.70554835     0.37500
N1085       N  0.45044272  0.91705631  0.73339585    -0.89000
H1086       H  0.38048211  0.85099034  0.74535045     0.18600
H1087       H  0.38820965  0.91514086  0.61361967     0.18600
N1088       N  0.32001935  0.84777276  0.62297595    -0.88100
H1089       H  0.45958409  0.89618746  0.73933029     0.36000
H1090       H  0.44004775  0.92269199  0.76041961     0.41100
H1091       H  0.29468616  0.84814190  0.63348941     0.40700
H1092       H  0.31277037  0.81796390  0.61854235     0.35600
C1093       C  0.05469922  0.81771553  0.85324974    -0.26100
C1094       C  0.07665279  0.83975138  0.81973920    -0.14200
C1095       C  0.06503722  0.86450181  0.79922487     0.36400
C1096       C  0.03107522  0.86596098  0.81230822    -0.25600
C1097       C  0.00928107  0.84365740  0.84589225    -0.14800
C1098       C  0.02160855  0.81990458  0.86679856     0.37500
N1099       N  0.00082523  0.79846086  0.90237886    -0.89000
H1100       H  0.06403793  0.79957536  0.86992299     0.18600
H1101       H  0.53009868  0.89052625  0.80745461     0.18600
N1102       N  0.08665475  0.88778394  0.76493949    -0.88100
H1103       H  0.02138669  0.80823482  0.92623764     0.36000
H1104       H  0.48579921  0.75619798  0.88490325     0.41100
H1105       H  0.08770971  0.86856738  0.74329208     0.40700
H1106       H  0.11595444  0.90822702  0.77403840     0.35600
C1107       C  0.11995698  0.69196023  0.81219254    -0.26100
C1108       C  0.13647224  0.69098627  0.84958614    -0.14200
C1109       C  0.15616253  0.72583768  0.87334635     0.36400
C1110       C  0.15984829  0.76145812  0.85922401    -0.25600
C1111       C  0.14355819  0.76273641  0.82195868    -0.14800
C1112       C  0.12314934  0.72784653  0.79830594     0.37500
N1113       N  0.10645032  0.72902430  0.76012198    -0.89000
H1114       H  0.10530661  0.66520601  0.79364684     0.18600
H1115       H  0.17478778  0.78811329  0.87791981     0.18600
N1116       N  0.17246402  0.72495820  0.91195479    -0.88100
H1117       H  0.07572978  0.70806499  0.76081724     0.36000
H1118       H  0.11968610  0.72003972  0.73793639     0.41100
H1119       H  0.15903489  0.73417386  0.93372064     0.40700
H1120       H  0.20326847  0.74569699  0.91160083     0.35600
C1121       C  0.29417094  0.94769880  0.82257668    -0.26100
C1122       C  0.29201911  0.97180752  0.85312251    -0.14200
C1123       C  0.25441946  0.96285799  0.86924834     0.36400
C1124       C  0.21953622  0.93097542  0.85334820    -0.25600
C1125       C  0.22136142  0.90668659  0.82295018    -0.14800
C1126       C  0.25890409  0.91478952  0.80736993     0.37500
N1127       N  0.26093346  0.88982463  0.77623541    -0.89000
H1128       H  0.32320788  0.95487817  0.81037772     0.18600
H1129       H  0.19075722  0.92393889  0.86614929     0.18600
N1130       N  0.25104360  0.48453157  0.89864591    -0.88100
H1131       H  0.29088995  0.89980083  0.76834149     0.36000
H1132       H  0.24701979  0.89301717  0.75061287     0.41100
H1133       H  0.26542526  0.48070031  0.92358756     0.40700
H1134       H  0.22109703  0.47366070  0.90698423     0.35600
C1135       C  0.17571795  0.56025637  0.14701537    -0.26100
C1136       C  0.17894483  0.54341885  0.11064597    -0.14200
C1137       C  0.21524185  0.56197720  0.08879550     0.36400
C1138       C  0.24880384  0.59453306  0.10570020    -0.25600
C1139       C  0.24659887  0.60939344  0.14368112    -0.14800
C1140       C  0.20927782  0.59358685  0.16348321     0.37500
N1141       N  0.20494926  0.60996853  0.20060993    -0.89000
H1142       H  0.14748224  0.54653230  0.16332891     0.18600
H1143       H  0.27714693  0.60763953  0.08960302     0.18600
N1144       N  0.21370181  0.04015832  0.05764657    -0.88100
H1145       H  0.21320792  0.63985269  0.19548916     0.36000
H1146       H  0.22485241  0.60921334  0.22146391     0.41100
H1147       H  0.19189566  0.03908055  0.03800154     0.40700
H1148       H  0.20780814  0.01100470  0.06277640     0.35600
C1149       C  0.35931101  0.79852822  0.11283917    -0.26100
C1150       C  0.34676774  0.81868504  0.13915146    -0.14200
C1151       C  0.33646379  0.80537846  0.17930188     0.36400
C1152       C  0.33495253  0.76963596  0.19107468    -0.25600
C1153       C  0.34430179  0.74785171  0.16362247    -0.14800
C1154       C  0.35796570  0.76319282  0.12459765     0.37500
N1155       N  0.36797132  0.74200589  0.09543620    -0.89000
H1156       H  0.36737864  0.80867565  0.08199312     0.18600
H1157       H  0.32498846  0.75793197  0.22101923     0.18600
N1158       N  0.32642470  0.82755402  0.20733607    -0.88100
H1159       H  0.34295348  0.71355395  0.09101096     0.36000
H1160       H  0.39146720  0.73867665  0.10693632     0.41100
H1161       H  0.35197582  0.85578286  0.21096262     0.40700
H1162       H  0.32008658  0.81400232  0.23572771     0.35600
C1163       C  0.40990350  0.64908781  0.19390483    -0.26100
C1164       C  0.38362255  0.64748908  0.16377146    -0.14200
C1165       C  0.38897417  0.63920836  0.12363900     0.36400
C1166       C  0.42154674  0.63438577  0.11383423    -0.25600
C1167       C  0.44964083  0.63908876  0.14328192    -0.14800
C1168       C  0.44339774  0.64557340  0.18389986     0.37500
N1169       N  0.47092385  0.64945499  0.21507533    -0.89000
H1170       H  0.40505982  0.65411010  0.22488172     0.18600
H1171       H  0.42664648  0.63008378  0.08248655     0.18600
N1172       N  0.36268093  0.63808599  0.09237234    -0.88100
H1173       H  0.49905298  0.67415823  0.20868954     0.36000
H1174       H  0.47373132  0.62384881  0.21451829     0.41100
H1175       H  0.35023090  0.61019504  0.07804521     0.40700
H1176       H  0.37991144  0.66013510  0.07119060     0.35600
C1177       C  0.52206117  0.12290960  0.08200804     0.03300
C1178       C  0.55514434  0.16275364  0.07923731    -0.12800
C1179       C  0.55431775  0.19395240  0.10132258     0.00800
C1180       C  0.52052687  0.18470072  0.12500021    -0.11300
C1181       C  0.98661148  0.14556341  0.12836049     0.03300
C1182       C  0.98903962  0.11480280  0.10891445    -0.10800
H1183       H  0.58031804  0.16939683  0.05968888     0.08900
H1184       H  0.51842805  0.20848038  0.14038667     0.06500
H1185       H  0.96358837  0.08457684  0.11066044     0.06300
C1186       C  0.86320267  0.40922032  0.08524855     0.03300
C1187       C  0.87149424  0.38393535  0.10857616    -0.12800
C1188       C  0.84084512  0.35126256  0.12881278     0.00800
C1189       C  0.80159791  0.34452737  0.12719012    -0.11300
C1190       C  0.79191535  0.36961962  0.10495293     0.03300
C1191       C  0.82313663  0.40229408  0.08362996    -0.10800
H1192       H  0.90147743  0.38777366  0.10849061     0.08900
H1193       H  0.77817490  0.31876585  0.14293916     0.06500
H1194       H  0.81630674  0.42143467  0.06546079     0.06300
C1195       C  0.57829786  0.46366234  0.06676358     0.03300
C1196       C  0.58116373  0.42804446  0.06780883    -0.12800
C1197       C  0.61639719  0.42959947  0.08384161     0.00800
C1198       C  0.64756406  0.46663916  0.09754608    -0.11300
C1199       C  0.64480142  0.50118451  0.09594115     0.03300
C1200       C  0.61004461  0.49950664  0.08172640    -0.10800
H1201       H  0.55676759  0.40007435  0.05639792     0.08900
H1202       H  0.67433649  0.46882914  0.11100939     0.06500
H1203       H  0.60321489  0.02711429  0.08501391     0.06300
C1204       C  0.84883898  0.15475931  0.17169767     0.80400
N1205       N  0.85912839  0.19379503  0.17585921    -0.77900
C1206       C  0.83046393  0.20459550  0.17386747     0.82900
N1207       N  0.79164143  0.17633377  0.16629949    -0.77800
C1208       C  0.78137108  0.13739016  0.16208784     0.83000
N1209       N  0.81015504  0.12700112  0.16417788    -0.79500
C1210       C  0.89080588  0.03714322  0.90680715     0.03300
C1211       C  0.89055619  0.07407946  0.90762287    -0.12800
C1212       C  0.85996614  0.07708266  0.88657543     0.00800
C1213       C  0.83231425  0.04464444  0.86355887    -0.11300
C1214       C  0.83135246  0.00829040  0.86391318     0.03300
C1215       C  0.86079523  0.00465177  0.88465178    -0.10800
H1216       H  0.91228932  0.09900368  0.92562924     0.08900
H1217       H  0.80908299  0.04665800  0.84694766     0.06500
H1218       H  0.85602239  0.47188182  0.88828057     0.06300
C1219       C  0.60780091  0.09079786  0.89853958     0.03300
C1220       C  0.64549843  0.09211018  0.90080011    -0.12800
C1221       C  0.67948891  0.12352887  0.88140792     0.00800
C1222       C  0.67482176  0.15111118  0.85833769    -0.11300
C1223       C  0.63872588  0.15097554  0.85716491     0.03300
C1224       C  0.60503778  0.12043094  0.87621304    -0.10800
H1225       H  0.64879454  0.07068906  0.91907702     0.08900
H1226       H  0.70056158  0.17514766  0.84311303     0.06500
H1227       H  0.57729373  0.12136874  0.87572737     0.06300
C1228       C  0.61202764  0.33382302  0.80909761     0.80400
N1229       N  0.61080318  0.29797638  0.80896864    -0.77900
C1230       C  0.64531445  0.29651036  0.80814605     0.82900
N1231       N  0.68116592  0.33105013  0.80950885    -0.77800
C1232       C  0.68269906  0.36684520  0.81013434     0.83000
N1233       N  0.64799526  0.36799683  0.81054981    -0.79500
C1234       C  0.94513676  0.37456429  0.89979194     0.03300
C1235       C  0.90845137  0.33724205  0.90163494    -0.12800
C1236       C  0.90569554  0.30334902  0.88172589     0.00800
C1237       C  0.93793058  0.30772871  0.85861997    -0.11300
C1238       C  0.97447211  0.34294878  0.85882203     0.03300
C1239       C  0.97781211  0.37667711  0.87800542    -0.10800
H1240       H  0.88360914  0.33416067  0.91978892     0.08900
H1241       H  0.93573761  0.28217587  0.84248496     0.06500
H1242       H  0.00684217  0.40389795  0.87794879     0.06300
Zn1243     Zn  0.99853149  0.05412276  0.97258982     1.49700
Zn1244     Zn  0.92777182  0.46116893  0.97319753     1.49400
Zn1245     Zn  0.51966115  0.48442069  0.96576620     1.49100
Zn1246     Zn  0.98689337  0.49915253  0.04947077     1.49500
O1247       O  0.98324650  0.49965288  0.99056537    -1.83900
O1248       O  0.95325915  0.05730582  0.94202789    -0.74500
O1249       O  0.92472314  0.41445830  0.93922062    -0.74400
O1250       O  0.56675408  0.02891509  0.93409652    -0.73900
O1251       O  0.90650995  0.49093252  0.94123632    -0.74600
O1252       O  0.54785682  0.07481975  0.93361849    -0.74200
O1253       O  0.98982900  0.43613427  0.93130379    -0.74700
O1254       O  0.52625282  0.48052879  0.06508802    -0.74100
O1255       O  0.88990553  0.43663060  0.02087176    -0.74900
O1256       O  0.54572366  0.46626431  0.00733191    -0.74300
O1257       O  0.93139255  0.45984860  0.07348156    -0.74700
O1258       O  0.00318451  0.05498266  0.07240560    -0.74700
O1259       O  0.51813161  0.09501660  0.01698023    -0.74400
C1260       C  0.91867816  0.02912281  0.93116363     0.77300
C1261       C  0.95315622  0.41025177  0.92447557     0.77800
C1262       C  0.57231238  0.06305265  0.92322735     0.76800
C1263       C  0.54669458  0.46803457  0.04559991     0.77200
C1264       C  0.89617999  0.43790646  0.05868219     0.78300
C1265       C  0.51582067  0.08959880  0.05497506     0.77400
C1266       C  0.74326761  0.29485049  0.72233802     0.03300
C1267       C  0.78067635  0.32286570  0.70632409    -0.12800
C1268       C  0.81237430  0.31511539  0.70341625     0.00800
C1269       C  0.80880177  0.28073847  0.72097725    -0.11300
C1270       C  0.77403839  0.25385778  0.74209826     0.03300
C1271       C  0.74011560  0.26022465  0.74187916    -0.10800
H1272       H  0.78446754  0.35055709  0.69387572     0.08900
H1273       H  0.83458178  0.27634114  0.72029712     0.06500
H1274       H  0.71196137  0.23837583  0.75545041     0.06300
C1275       C  0.68562629  0.46420503  0.72611874     0.03300
C1276       C  0.65627465  0.47249245  0.71164397    -0.12800
C1277       C  0.66251249  0.51137284  0.71031059     0.00800
C1278       C  0.69612269  0.04198736  0.73243464    -0.11300
C1279       C  0.72685343  0.03643505  0.74802301     0.03300
C1280       C  0.72296948  0.99734586  0.74506360    -0.10800
H1281       H  0.62901131  0.44838880  0.69839884     0.08900
H1282       H  0.69911458  0.07151154  0.73312464     0.06500
H1283       H  0.74749430  0.99297128  0.75442349     0.06300
C1284       C  0.51589366  0.23869553  0.72667294     0.03300
C1285       C  0.98418443  0.24246487  0.74283409    -0.12800
C1286       C  0.94460457  0.20774112  0.74427022     0.00800
C1287       C  0.93822357  0.17226406  0.72575384    -0.11300
C1288       C  0.96991721  0.16914460  0.70922331     0.03300
C1289       C  0.50737729  0.20098861  0.71240478    -0.10800
H1290       H  0.98923720  0.27090804  0.75443501     0.08900
H1291       H  0.90838444  0.14604091  0.72564037     0.06500
H1292       H  0.53128701  0.19774802  0.69870210     0.06300
C1293       C  0.97163291  0.02843798  0.66026173     0.80400
N1294       N  0.94062427  0.48778342  0.66028832    -0.77900
C1295       C  0.95126419  0.45911566  0.65882274     0.82900
N1296       N  0.99059937  0.46975566  0.65999862    -0.77800
C1297       C  0.52119956  0.50992378  0.65770632     0.83000
N1298       N  0.50931958  0.03783121  0.66610810    -0.79500
Zn1299     Zn  0.78338001  0.11276984  0.85031077     1.49700
Zn1300     Zn  0.81518388  0.16624484  0.77056068     1.49400
Zn1301     Zn  0.79244014  0.20011196  0.84822565     1.49100
Zn1302     Zn  0.87078462  0.19022965  0.84924356     1.49500
O1303       O  0.81553665  0.16741629  0.82855224    -1.83900
O1304       O  0.76559488  0.06908826  0.80684004    -0.74500
O1305       O  0.79695208  0.20643575  0.75109832    -0.74400
O1306       O  0.74884922  0.16778096  0.88876707    -0.73900
O1307       O  0.77455967  0.10705576  0.75309738    -0.74600
O1308       O  0.72955706  0.10520943  0.87030782    -0.74200
O1309       O  0.76811058  0.21825935  0.80342334    -0.74700
O1310       O  0.88087446  0.23433322  0.88909723    -0.74100
O1311       O  0.87388002  0.18442677  0.75158456    -0.74900
O1312       O  0.83774936  0.25350669  0.86918933    -0.74300
O1313       O  0.91352709  0.21410181  0.80443871    -0.74700
O1314       O  0.87867078  0.14483844  0.87157229    -0.74700
O1315       O  0.81626839  0.10311233  0.89196094    -0.74400
C1316       C  0.75917666  0.07233124  0.76976220     0.77300
C1317       C  0.77806714  0.22311691  0.76636051     0.77800
C1318       C  0.72129532  0.13139649  0.88329418     0.76800
C1319       C  0.87185564  0.26172260  0.88323862     0.77200
C1320       C  0.90917788  0.20388999  0.76739017     0.78300
C1321       C  0.85260572  0.11137397  0.88652879     0.77400
C1322       C  0.56844336  0.12141629  0.57643463     0.03300
C1323       C  0.57645063  0.16142390  0.57147437    -0.12800
C1324       C  0.60957863  0.19335144  0.59162956     0.00800
C1325       C  0.63477352  0.18451838  0.61486955    -0.11300
C1326       C  0.62597827  0.14504823  0.62128044     0.03300
C1327       C  0.59217758  0.11373060  0.60288764    -0.10800
H1328       H  0.55758878  0.16756630  0.55196465     0.08900
H1329       H  0.66192102  0.20882958  0.62790588     0.06500
H1330       H  0.58653179  0.08335864  0.60634004     0.06300
C1331       C  0.51215429  0.40710982  0.57413313     0.03300
C1332       C  0.98025887  0.38047177  0.59415103    -0.12800
C1333       C  0.97817066  0.34652357  0.61136321     0.00800
C1334       C  0.50780487  0.33935569  0.60981590    -0.11300
C1335       C  0.54333166  0.36633543  0.58960079     0.03300
C1336       C  0.54521538  0.40029319  0.57097691    -0.10800
H1337       H  0.95432489  0.38454594  0.59619095     0.08900
H1338       H  0.50488785  0.31204606  0.62223324     0.06500
H1339       H  0.57151281  0.42059381  0.55369663     0.06300
C1340       C  0.85432546  0.46264995  0.57168243     0.03300
C1341       C  0.81416556  0.43060890  0.56703970    -0.12800
C1342       C  0.78223826  0.43276617  0.58607496     0.00800
C1343       C  0.79129567  0.46751561  0.60805871    -0.11300
C1344       C  0.83096356  0.49775998  0.61491397     0.03300
C1345       C  0.86226777  0.49481544  0.59718234    -0.10800
H1346       H  0.80791671  0.40489393  0.54858960     0.08900
H1347       H  0.76710407  0.47091903  0.62062789     0.06500
H1348       H  0.89362298  0.02306070  0.60174813     0.06300
C1349       C  0.82261772  0.13606369  0.66548059     0.80400
N1350       N  0.78309142  0.12494612  0.66677153    -0.77900
C1351       C  0.77160154  0.15299537  0.66685961     0.82900
N1352       N  0.79998981  0.19245702  0.66427254    -0.77800
C1353       C  0.83963565  0.20370831  0.66324697     0.83000
N1354       N  0.85071261  0.17537767  0.66315797    -0.79500
Zn1355     Zn  0.66172910  0.38472764  0.62585177     1.49700
Zn1356     Zn  0.64815322  0.33229527  0.70958781     1.49400
Zn1357     Zn  0.59359828  0.29476366  0.62584885     1.49100
Zn1358     Zn  0.68361386  0.31624995  0.62413149     1.49500
O1359       O  0.64687948  0.33205900  0.64823869    -1.83900
O1360       O  0.67967364  0.42429221  0.67069203    -0.74500
O1361       O  0.58696173  0.29248583  0.72947015    -0.74400
O1362       O  0.56946819  0.32206401  0.59324168    -0.73900
O1363       O  0.66984307  0.39360497  0.72963995    -0.74600
O1364       O  0.61269412  0.38684802  0.60276411    -0.74200
O1365       O  0.55465418  0.27297964  0.67097653    -0.74700
O1366       O  0.65521331  0.26345154  0.59369885    -0.74100
O1367       O  0.68838279  0.31079167  0.72838399    -0.74900
O1368       O  0.59043378  0.24342106  0.60210376    -0.74300
O1369       O  0.70820341  0.30150637  0.66843310    -0.74700
O1370       O  0.73316080  0.36379669  0.59780062    -0.74700
O1371       O  0.71212657  0.40787603  0.59167178    -0.74400
C1372       C  0.68074098  0.42571791  0.70897393     0.77300
C1373       C  0.55419757  0.27205484  0.70924114     0.77800
C1374       C  0.57770033  0.35856170  0.59308128     0.76800
C1375       C  0.61833916  0.23579313  0.59336594     0.77200
C1376       C  0.70956002  0.30042894  0.70663639     0.78300
C1377       C  0.73997383  0.39896190  0.58939303     0.77400
C1378       C  0.88534534  0.36467486  0.40545142     0.03300
C1379       C  0.84976365  0.36232268  0.39133206    -0.12800
C1380       C  0.81645606  0.32572492  0.38156686     0.00800
C1381       C  0.81794352  0.29069423  0.38492926    -0.11300
C1382       C  0.85350681  0.29172922  0.39573432     0.03300
C1383       C  0.88796377  0.32908571  0.40572684    -0.10800
H1384       H  0.84713469  0.38896480  0.38892938     0.08900
H1385       H  0.79193826  0.26267333  0.37556530     0.06500
H1386       H  0.91581673  0.33026412  0.41394709     0.06300
C1387       C  0.93810734  0.09032527  0.40768042     0.03300
C1388       C  0.89947426  0.08714256  0.40478637    -0.12800
C1389       C  0.89675067  0.12150163  0.39371314     0.00800
C1390       C  0.93164728  0.15719732  0.38461804    -0.11300
C1391       C  0.96840038  0.15905190  0.38375651     0.03300
C1392       C  0.97188009  0.12650722  0.39569521    -0.10800
H1393       H  0.87247232  0.05903881  0.41119245     0.08900
H1394       H  0.92989650  0.18303713  0.37428810     0.06500
H1395       H  0.00163268  0.13021442  0.39615251     0.06300
C1396       C  0.60925892  0.03572637  0.40354796     0.03300
C1397       C  0.64487719  0.07402881  0.40057915    -0.12800
C1398       C  0.68148634  0.07631747  0.38796485     0.00800
C1399       C  0.68167955  0.04141471  0.37767362    -0.11300
C1400       C  0.64645514  0.00505546  0.37641839     0.03300
C1401       C  0.61071542  0.00194215  0.38960907    -0.10800
H1402       H  0.64432721  0.10103734  0.40843929     0.08900
H1403       H  0.70917411  0.04292092  0.36693448     0.06500
H1404       H  0.58471955  0.47112375  0.39037743     0.06300
C1405       C  0.64830087  0.36507343  0.31876598     0.80400
N1406       N  0.68148920  0.36134054  0.31927365    -0.77900
C1407       C  0.67783738  0.32459931  0.31964067     0.82900
N1408       N  0.64083168  0.29158602  0.32068445    -0.77800
C1409       C  0.60759723  0.29515417  0.31931716     0.83000
N1410       N  0.61142298  0.33198663  0.31964879    -0.79500
Zn1411     Zn  0.51639791  0.05212743  0.46679233     1.49700
Zn1412     Zn  0.99589561  0.46008236  0.46341276     1.49400
Zn1413     Zn  0.97872263  0.49703437  0.54172710     1.49100
Zn1414     Zn  0.92326804  0.47961635  0.46257350     1.49500
O1415       O  0.97820506  0.49735281  0.48271038    -1.83900
O1416       O  0.56442636  0.05595452  0.43402492    -0.74500
O1417       O  0.51256778  0.43647634  0.51132531    -0.74400
O1418       O  0.51806766  0.05303915  0.56708407    -0.73900
O1419       O  0.54707710  0.49115831  0.43303600    -0.74600
O1420       O  0.54115358  0.09183332  0.51284163    -0.74200
O1421       O  0.99507544  0.45725786  0.56319361    -0.74700
O1422       O  0.88354646  0.46381828  0.50842509    -0.74100
O1423       O  0.95099296  0.41093123  0.43325122    -0.74900
O1424       O  0.92272898  0.48062320  0.56272253    -0.74300
O1425       O  0.90440944  0.42895094  0.43125128    -0.74700
O1426       O  0.91837566  0.02431937  0.43501521    -0.74700
O1427       O  0.98311258  0.07050575  0.43348034    -0.74400
C1428       C  0.57124427  0.02781282  0.42419205     0.77300
C1429       C  0.50809776  0.43679694  0.54928122     0.77800
C1430       C  0.53992924  0.08736409  0.55090271     0.76800
C1431       C  0.88823229  0.46761264  0.54644517     0.77200
C1432       C  0.91585101  0.40372480  0.42350996     0.78300
C1433       C  0.94641439  0.05945267  0.42566566     0.77400
C1434       C  0.74048058  0.46515173  0.23550090     0.03300
C1435       C  0.77233290  0.46301684  0.25391331    -0.12800
C1436       C  0.80545412  0.49722199  0.26976787     0.00800
C1437       C  0.80785085  0.03440820  0.27146932    -0.11300
C1438       C  0.77702822  0.03834162  0.25359240     0.03300
C1439       C  0.74186422  0.50284429  0.23374998    -0.10800
H1440       H  0.77265510  0.43512442  0.25335278     0.08900
H1441       H  0.83345787  0.06045434  0.28452916     0.06500
H1442       H  0.71769784  0.50510108  0.21953503     0.06300
C1443       C  0.68744320  0.24974224  0.25254890     0.03300
C1444       C  0.72422340  0.24904658  0.25136757    -0.12800
C1445       C  0.72803072  0.21982284  0.27370194     0.00800
C1446       C  0.69543690  0.19212126  0.29649793    -0.11300
C1447       C  0.65855058  0.19068264  0.29577936     0.03300
C1448       C  0.65500509  0.22036841  0.27501994    -0.10800
H1449       H  0.74869795  0.26983553  0.23235023     0.08900
H1450       H  0.69764548  0.16892565  0.31263130     0.06500
H1451       H  0.62602919  0.21842849  0.27318057     0.06300
C1452       C  0.52245885  0.30068874  0.24236073     0.03300
C1453       C  0.52608571  0.33446696  0.26274641    -0.12800
C1454       C  0.99605867  0.33190651  0.28765142     0.00800
C1455       C  0.95923533  0.29661427  0.28850073    -0.11300
C1456       C  0.95320581  0.26217575  0.26814333     0.03300
C1457       C  0.98599945  0.26348123  0.24670677    -0.10800
H1458       H  0.55398541  0.36280976  0.26125268     0.08900
H1459       H  0.93432057  0.29671417  0.30382718     0.06500
H1460       H  0.98175960  0.23757361  0.22988756     0.06300
C1461       C  0.94883103  0.50301424  0.33162959     0.80400
N1462       N  0.95012535  0.46846602  0.33146188    -0.77900
C1463       C  0.98568524  0.46930576  0.33607055     0.82900
N1464       N  0.52053612  0.00487188  0.34044702    -0.77800
C1465       C  0.52054920  0.04013677  0.34044824     0.83000
N1466       N  0.98482642  0.03860623  0.33985803    -0.79500
Zn1467     Zn  0.59569779  0.31511147  0.13503517     1.49700
Zn1468     Zn  0.66878945  0.29546972  0.13964003     1.49400
Zn1469     Zn  0.68808061  0.38577011  0.13273975     1.49100
Zn1470     Zn  0.64955664  0.33692061  0.21509372     1.49500
O1471       O  0.65033682  0.33316695  0.15613091    -1.83900
O1472       O  0.57641075  0.26307312  0.10417614    -0.74500
O1473       O  0.72199523  0.32346509  0.11010574    -0.74400
O1474       O  0.65888457  0.40189481  0.09238037    -0.73900
O1475       O  0.62260139  0.24472792  0.11372295    -0.74600
O1476       O  0.59382448  0.36179068  0.10575833    -0.74200
O1477       O  0.74071632  0.38816685  0.11295498    -0.74700
O1478       O  0.69083714  0.39522886  0.23264402    -0.74100
O1479       O  0.68430514  0.27398453  0.18771256    -0.74900
O1480       O  0.70876244  0.42982321  0.17540755    -0.74300
O1481       O  0.66464897  0.29653928  0.23939899    -0.74700
O1482       O  0.59260891  0.32256634  0.23470098    -0.74700
O1483       O  0.55388852  0.29937332  0.18037475    -0.74400
C1484       C  0.58713739  0.23647459  0.10374057     0.77300
C1485       C  0.74913854  0.36032965  0.10740144     0.77800
C1486       C  0.62249662  0.39476254  0.09214397     0.82800
C1487       C  0.71033556  0.42849147  0.21367611     0.77200
C1488       C  0.67929419  0.27558194  0.22535297     0.78300
C1489       C  0.55789439  0.30663725  0.21810929     0.77400
Zn1490     Zn  0.76198286  0.13855545  0.29525315     1.49700
Zn1491     Zn  0.84677882  0.14645702  0.29972632     1.49400
Zn1492     Zn  0.83991660  0.22224032  0.30467118     1.49100
Zn1493     Zn  0.81042009  0.16378960  0.37945627     1.49500
O1494       O  0.81398558  0.16688908  0.32085085    -1.83900
O1495       O  0.75475721  0.08515110  0.27088963    -0.74500
O1496       O  0.90362734  0.19451547  0.28635474    -0.74400
O1497       O  0.79492626  0.23503159  0.29085954    -0.73900
O1498       O  0.81822990  0.10901702  0.25305385    -0.74600
O1499       O  0.75450089  0.17746348  0.25986911    -0.74200
O1500       O  0.88276327  0.23472006  0.26260469    -0.74700
O1501       O  0.82811441  0.22130857  0.39970471    -0.74100
O1502       O  0.85186338  0.11215111  0.34258158    -0.74900
O1503       O  0.87157474  0.25644100  0.35168989    -0.74300
O1504       O  0.84864253  0.14324401  0.39802249    -0.74700
O1505       O  0.75100688  0.12477822  0.39467410    -0.74700
O1506       O  0.71880400  0.12087936  0.33743678    -0.74400
C1507       C  0.78244285  0.07952627  0.25654242     0.77300
C1508       C  0.91128241  0.22765503  0.27010151     0.77800
C1509       C  0.76222895  0.21210590  0.27209890     0.76800
C1510       C  0.85403634  0.25504140  0.38446763     0.77200
C1511       C  0.86072129  0.12191503  0.37935086     0.78300
C1512       C  0.71840725  0.11216187  0.37443810     0.77400
C1513       C  0.50694783  0.42017169  0.34700550    -0.26100
C1514       C  0.98851776  0.43401132  0.32473741    -0.14200
C1515       C  0.97961325  0.41966191  0.28484613     0.36400
C1516       C  0.98405939  0.38728459  0.27315707    -0.25600
C1517       C  0.99731923  0.36894805  0.30067507    -0.14800
C1518       C  0.51178755  0.38849351  0.33291227     0.37500
N1519       N  0.53462500  0.37582439  0.35649934    -0.89000
H1520       H  0.52053579  0.43461470  0.37518207     0.18600
H1521       H  0.97640039  0.37587008  0.24258170     0.18600
N1522       N  0.96672220  0.43846665  0.25591603    -0.88100
H1523       H  0.55802849  0.37788789  0.33868883     0.36000
H1524       H  0.51593879  0.34573170  0.36411086     0.41100
H1525       H  0.93872090  0.41680484  0.24468490     0.40700
H1526       H  0.98720402  0.44854544  0.23199665     0.35600
C1527       C  0.56516549  0.11343130  0.35183871    -0.26100
C1528       C  0.55805777  0.07803741  0.33244442    -0.14200
C1529       C  0.58440098  0.08009331  0.30177180     0.36400
C1530       C  0.61625857  0.11730555  0.29015195    -0.25600
C1531       C  0.62291250  0.15289305  0.30881817    -0.14800
C1532       C  0.59743240  0.15081297  0.34053705     0.37500
N1533       N  0.60428384  0.18579799  0.36235191    -0.89000
H1534       H  0.54569932  0.11177460  0.37611080     0.18600
H1535       H  0.63594070  0.11844797  0.26606145     0.18600
N1536       N  0.57818463  0.04465057  0.28128603    -0.88100
H1537       H  0.60280691  0.20572668  0.34215396     0.36000
H1538       H  0.63331635  0.19945830  0.37441785     0.41100
H1539       H  0.60419037  0.04268388  0.28472142     0.40700
H1540       H  0.57444848  0.04787101  0.25054979     0.35600
C1541       C  0.88043110  0.02639290  0.27650537    -0.26100
C1542       C  0.84110006  0.49655925  0.28598743    -0.14200
C1543       C  0.83901992  0.47330491  0.31978564     0.36400
C1544       C  0.87462915  0.47582995  0.33466595    -0.25600
C1545       C  0.91209891  0.50235974  0.31751451    -0.14800
C1546       C  0.91550241  0.02982495  0.29273296     0.37500
N1547       N  0.95362278  0.05911601  0.27654161    -0.89000
H1548       H  0.88303272  0.04659546  0.25248882     0.18600
H1549       H  0.87333170  0.45774341  0.36018479     0.18600
N1550       N  0.80146136  0.44925168  0.34029152    -0.88100
H1551       H  0.95650523  0.08739043  0.28025635     0.36000
H1552       H  0.95373091  0.05368671  0.24562843     0.41100
H1553       H  0.80561346  0.43563213  0.36563971     0.40700
H1554       H  0.78246262  0.42602375  0.32104750     0.35600
C1555       C  0.66182421  0.44945736  0.38497918    -0.26100
C1556       C  0.64684401  0.46809355  0.36010616    -0.14200
C1557       C  0.63467926  0.45447616  0.32026931     0.36400
C1558       C  0.63709118  0.42163673  0.30616236    -0.25600
C1559       C  0.65176487  0.40276043  0.33125751    -0.14800
C1560       C  0.66437613  0.41665448  0.37095650     0.37500
N1561       N  0.67785969  0.39620700  0.39740971    -0.89000
H1562       H  0.68257573  0.97041409  0.41209698     0.18600
H1563       H  0.62693953  0.41040821  0.27591277     0.18600
N1564       N  0.61989565  0.47348963  0.29379922    -0.88100
H1565       H  0.68323188  0.40864261  0.42637768     0.36000
H1566       H  0.70560392  0.40124446  0.38665926     0.41100
H1567       H  0.64211943  0.50356250  0.29087489     0.40700
H1568       H  0.59452356  0.47215240  0.30701994     0.35600
C1569       C  0.51430181  0.19391041  0.32721313    -0.26100
C1570       C  0.50531983  0.19493183  0.36803360    -0.14200
C1571       C  0.52792013  0.22944853  0.39136747     0.36400
C1572       C  0.56017917  0.26259856  0.37344383    -0.25600
C1573       C  0.57004589  0.26144136  0.33293971    -0.14800
C1574       C  0.54686175  0.22689765  0.30924903     0.37500
N1575       N  0.55488586  0.22444457  0.26729427    -0.89000
H1576       H  0.99510738  0.16930423  0.30817123     0.18600
H1577       H  0.57862112  0.28910240  0.39148365     0.18600
N1578       N  0.51866730  0.23016015  0.43329982    -0.88100
H1579       H  0.56007633  0.20046351  0.26367000     0.36000
H1580       H  0.58076309  0.25016042  0.25769101     0.41100
H1581       H  0.98679749  0.22537545  0.43573114     0.40700
H1582       H  0.53912581  0.25762834  0.44640542     0.35600
C1583       C  0.70942239  0.30159016  0.36767896    -0.26100
C1584       C  0.71252211  0.32114176  0.33116942    -0.14200
C1585       C  0.74971894  0.34131879  0.31072452     0.36400
C1586       C  0.78321294  0.34234528  0.32818188    -0.25600
C1587       C  0.78032329  0.32409779  0.36548577    -0.14800
C1588       C  0.74305965  0.30362713  0.38573078     0.37500
N1589       N  0.73840536  0.28597316  0.42501216    -0.89000
H1590       H  0.68102992  0.28675453  0.38375236     0.18600
H1591       H  0.81183804  0.35764364  0.31256981     0.18600
N1592       N  0.75479692  0.36106816  0.27267827    -0.88100
H1593       H  0.72812811  0.30026815  0.44457041     0.36000
H1594       H  0.76574954  0.29132150  0.43697161     0.41100
H1595       H  0.72799835  0.35850565  0.26244659     0.40700
H1596       H  0.76323439  0.34656471  0.25139281     0.35600
C1597       C  0.82455196  0.07504665  0.68488880    -0.26100
C1598       C  0.83381054  0.10560908  0.65694491    -0.14200
C1599       C  0.84868200  0.10395000  0.61853033     0.36400
C1600       C  0.85129952  0.07014474  0.60785897    -0.25600
C1601       C  0.83841880  0.03782369  0.63448950    -0.14800
C1602       C  0.82663189  0.04107693  0.67404804     0.37500
N1603       N  0.81630163  0.01033381  0.70352216    -0.89000
H1604       H  0.81433471  0.07691328  0.71474604     0.18600
H1605       H  0.87290506  0.57142274  0.58426773     0.18600
N1606       N  0.85866334  0.13538527  0.58969693    -0.88100
H1607       H  0.84055263  0.00539166  0.70649427     0.36000
H1608       H  0.79145628  0.98386254  0.69349389     0.41100
H1609       H  0.83213948  0.13527956  0.58227510     0.40700
H1610       H  0.86933531  0.12958595  0.56295944     0.35600
C1611       C  0.90337969  0.26499652  0.68031873    -0.26100
C1612       C  0.87042948  0.24520562  0.65427696    -0.14200
C1613       C  0.87091628  0.26214858  0.61652607     0.36400
C1614       C  0.90571387  0.29721989  0.60443866    -0.25600
C1615       C  0.94006641  0.31502147  0.62905460    -0.14800
C1616       C  0.93813416  0.29975763  0.66822133     0.37500
N1617       N  0.97077213  0.31887916  0.69628495    -0.89000
H1618       H  0.90270722  0.25248579  0.70962346     0.18600
H1619       H  0.90701529  0.30913788  0.57455437     0.18600
N1620       N  0.83713991  0.24236365  0.58963387    -0.88100
H1621       H  0.97835672  0.34882807  0.69921693     0.36000
H1622       H  0.99570245  0.31784430  0.68522373     0.41100
H1623       H  0.83463134  0.21505624  0.58105793     0.40700
H1624       H  0.84227512  0.25895880  0.56320187     0.35600
C1625       C  0.67161244  0.11724703  0.61691319    -0.26100
C1626       C  0.65655532  0.13748748  0.63998854    -0.14200
C1627       C  0.67486694  0.15448639  0.67738680     0.36400
C1628       C  0.71123819  0.15662959  0.68741555    -0.25600
C1629       C  0.72890387  0.14087792  0.66169689    -0.14800
C1630       C  0.70738278  0.11824323  0.62774286     0.37500
N1631       N  0.72344542  0.09907985  0.60265901    -0.89000
H1632       H  0.65703294  0.10302131  0.58879895     0.18600
H1633       H  0.72619630  0.17150821  0.71489744     0.18600
N1634       N  0.65703050  0.16906810  0.70588000    -0.88100
H1635       H  0.70481077  0.08541643  0.57776429     0.36000
H1636       H  0.72286608  0.07590185  0.61951695     0.41100
H1637       H  0.62786155  0.14598529  0.71203634     0.40700
H1638       H  0.65538865  0.19310538  0.69366348     0.35600
C1639       C  0.98040674  0.09455823  0.64326926    -0.26100
C1640       C  0.96208979  0.06033953  0.66749126    -0.14200
C1641       C  0.44059593  0.05963393  0.70726202     0.36400
C1642       C  0.44126852  0.09493449  0.71902021    -0.25600
C1643       C  0.96304935  0.13075782  0.69184930    -0.14800
C1644       C  0.98068312  0.12961052  0.65490494     0.37500
N1645       N  0.99982783  0.16432782  0.62970102    -0.89000
H1646       H  0.99601878  0.09459220  0.61607906     0.18600
H1647       H  0.42889871  0.09620950  0.74802076     0.18600
N1648       N  0.42349337  0.02533014  0.73342134    -0.88100
H1649       H  0.98629738  0.15661877  0.60124662     0.36000
H1650       H  0.02992907  0.17213433  0.62644371     0.41100
H1651       H  0.39895752  0.00209624  0.71841385     0.40700
H1652       H  0.41199449  0.03113780  0.75957494     0.35600
C1653       C  0.61537745  0.03858643  0.72164723    -0.26100
C1654       C  0.63175631  0.51875248  0.69184825    -0.14200
C1655       C  0.61432527  0.50169565  0.65421956     0.36400
C1656       C  0.57945679  0.50174302  0.64190444    -0.25600
C1657       C  0.56262249  0.51954542  0.66586463    -0.14800
C1658       C  0.58101067  0.03961596  0.70908110     0.37500
N1659       N  0.56578437  0.06049738  0.73274265    -0.89000
H1660       H  0.62985481  0.05290961  0.74976656     0.18600
H1661       H  0.56439828  0.48642443  0.61439420     0.18600
N1662       N  0.63137040  0.48327089  0.62943181    -0.88100
H1663       H  0.58496399  0.07541067  0.75695387     0.36000
H1664       H  0.53832498  0.03910330  0.74520518     0.41100
H1665       H  0.66027903  0.50553690  0.62124778     0.40700
H1666       H  0.61512306  0.47252547  0.60262299     0.35600
C1667       C  0.88494873  0.36229341  0.71157735    -0.26100
C1668       C  0.85108881  0.34590185  0.68638669    -0.14200
C1669       C  0.85386858  0.36286832  0.64785218     0.36400
C1670       C  0.88828594  0.39885914  0.63787906    -0.25600
C1671       C  0.92036150  0.41732016  0.66502316    -0.14800
C1672       C  0.91959919  0.39794024  0.70117701     0.37500
N1673       N  0.95261871  0.41608603  0.72889453    -0.89000
H1674       H  0.88345986  0.34914536  0.74084166     0.18600
H1675       H  0.88943166  0.41315198  0.60946862     0.18600
N1676       N  0.82263134  0.34411387  0.61826367    -0.88100
H1677       H  0.96257688  0.39578051  0.73426767     0.36000
H1678       H  0.94201427  0.42098748  0.75619165     0.41100
H1679       H  0.79649202  0.34308521  0.62859338     0.40700
H1680       H  0.81677066  0.31479664  0.61380401     0.35600
C1681       C  0.55142203  0.31041520  0.84981996    -0.26100
C1682       C  0.57555029  0.33538605  0.81880296    -0.14200
C1683       C  0.56650628  0.36360186  0.80165242     0.36400
C1684       C  0.53327230  0.36582082  0.81574940    -0.25600
C1685       C  0.50960520  0.34097983  0.84717291    -0.14800
C1686       C  0.51922496  0.31353183  0.86466733     0.37500
N1687       N  0.49691720  0.28949619  0.89843428    -0.89000
H1688       H  0.55867342  0.28951819  0.86406368     0.18600
H1689       H  0.02937841  0.39022245  0.80310033     0.18600
N1690       N  0.58993342  0.38973359  0.76964996    -0.88100
H1691       H  0.51685148  0.29587716  0.92246307     0.36000
H1692       H  0.98162899  0.25646274  0.88296077     0.41100
H1693       H  0.59099393  0.37229961  0.74598189     0.40700
H1694       H  0.61905986  0.40870024  0.78019786     0.35600
C1695       C  0.61583417  0.18682070  0.81101878    -0.26100
C1696       C  0.63956895  0.18760430  0.84350389    -0.14200
C1697       C  0.66568683  0.22416691  0.86280637     0.36400
C1698       C  0.66818560  0.25936472  0.84916778    -0.25600
C1699       C  0.64420667  0.25884394  0.81722475    -0.14800
C1700       C  0.61784808  0.22241448  0.79784084     0.37500
N1701       N  0.59362461  0.22158811  0.76470082    -0.89000
H1702       H  0.59602429  0.15876711  0.79588808     0.18600
H1703       H  0.68791124  0.28711322  0.86486535     0.18600
N1704       N  0.68906858  0.22544891  0.89706493    -0.88100
H1705       H  0.56355489  0.20201759  0.77210936     0.36000
H1706       H  0.60076665  0.20981450  0.73962242     0.41100
H1707       H  0.68137871  0.23762260  0.92139277     0.40700
H1708       H  0.71941191  0.24468464  0.89036057     0.35600
C1709       C  0.79315889  0.44350643  0.82286334    -0.26100
C1710       C  0.79046883  0.46733147  0.85340690    -0.14200
C1711       C  0.75258886  0.45826575  0.86876571     0.36400
C1712       C  0.71798298  0.42680733  0.85195343    -0.25600
C1713       C  0.72029340  0.40280983  0.82152205    -0.14800
C1714       C  0.75814002  0.41086999  0.80683255     0.37500
N1715       N  0.76076074  0.38616064  0.77578311    -0.89000
H1716       H  0.82241555  0.45072727  0.81127173     0.18600
H1717       H  0.68900489  0.41979228  0.86419197     0.18600
N1718       N  0.75515340  0.98597576  0.89936698    -0.88100
H1719       H  0.79082056  0.39593229  0.76872574     0.36000
H1720       H  0.74766324  0.38990333  0.74976035     0.41100
H1721       H  0.76938055  0.98124494  0.92390719     0.40700
H1722       H  0.72531439  0.97533770  0.90790947     0.35600
C1723       C  0.67157888  0.06024690  0.14989868    -0.26100
C1724       C  0.67378042  0.04141089  0.11454827    -0.14200
C1725       C  0.70961961  0.05845442  0.09191385     0.36400
C1726       C  0.74373118  0.09157232  0.10717464    -0.25600
C1727       C  0.74269028  0.10832701  0.14441082    -0.14800
C1728       C  0.70581735  0.09396029  0.16486290     0.37500
N1729       N  0.70265891  0.11193249  0.20139671    -0.89000
H1730       H  0.64368822  0.04771144  0.16673473     0.18600
H1731       H  0.77167053  0.10349767  0.09050023     0.18600
N1732       N  0.72132315  0.53956366  0.05210508    -0.88100
H1733       H  0.71167665  0.14186300  0.19534541     0.36000
H1734       H  0.72238006  0.11099480  0.22235077     0.41100
H1735       H  0.70074447  0.53921127  0.03124966     0.40700
H1736       H  0.71526321  0.51026191  0.05652049     0.35600
C1737       C  0.85675819  0.29795134  0.11636921    -0.26100
C1738       C  0.84775802  0.31945318  0.14465735    -0.14200
C1739       C  0.83947077  0.30601185  0.18513535     0.36400
C1740       C  0.83691058  0.26944611  0.19515407    -0.25600
C1741       C  0.84249464  0.24647156  0.16587112    -0.14800
C1742       C  0.85383992  0.26154545  0.12645283     0.37500
N1743       N  0.86011153  0.23923110  0.09543139    -0.89000
H1744       H  0.86312070  0.30800632  0.08533328     0.18600
H1745       H  0.82934190  0.25833058  0.22551758     0.18600
N1746       N  0.83242608  0.32789269  0.21623946    -0.88100
H1747       H  0.83379357  0.21158848  0.09193769     0.36000
H1748       H  0.88319033  0.23410448  0.10459881     0.41100
H1749       H  0.83645309  0.35506036  0.20542074     0.40700
H1750       H  0.85436975  0.33527779  0.23845920     0.35600
C1751       C  0.91155176  0.15608736  0.19277381    -0.26100
C1752       C  0.88022299  0.14424770  0.16495996    -0.14200
C1753       C  0.88107402  0.12564102  0.12862133     0.36400
C1754       C  0.91498167  0.12287044  0.11902795    -0.25600
C1755       C  0.94805291  0.13828956  0.14518843    -0.14800
C1756       C  0.94520262  0.15261235  0.18361301     0.37500
N1757       N  0.97561744  0.16331482  0.21379977    -0.89000
H1758       H  0.91023037  0.16878734  0.22125896     0.18600
H1759       H  0.91665332  0.11143254  0.08959973     0.18600
N1760       N  0.84889835  0.11218107  0.10003624    -0.88100
H1761       H  0.00277352  0.18700338  0.20350166     0.36000
H1762       H  0.97942976  0.13862822  0.21867041     0.41100
H1763       H  0.83782614  0.08168629  0.09464000     0.40700
H1764       H  0.86058467  0.12754135  0.07297676     0.35600
C1765       C  0.52232534  0.62330817  0.08244208     0.03300
C1766       C  0.55466660  0.66360185  0.07911838    -0.12800
C1767       C  0.55330882  0.69454328  0.10134850     0.00800
C1768       C  0.51973186  0.68451324  0.12561227    -0.11300
C1769       C  0.98937377  0.64670944  0.12738193     0.03300
C1770       C  0.99123458  0.61589131  0.10750423    -0.10800
H1771       H  0.57970616  0.67072634  0.05919231     0.08900
H1772       H  0.51720855  0.70780022  0.14157482     0.06500
H1773       H  0.96530110  0.58591343  0.10863278     0.06300
C1774       C  0.86019258  0.90903363  0.08332142     0.03300
C1775       C  0.86816691  0.88272998  0.10518320    -0.12800
C1776       C  0.83731748  0.84945131  0.12432225     0.00800
C1777       C  0.79819544  0.84286903  0.12285983    -0.11300
C1778       C  0.78887132  0.86916528  0.10246284     0.03300
C1779       C  0.82030171  0.90260056  0.08222217    -0.10800
H1780       H  0.89813582  0.88652851  0.10500700     0.08900
H1781       H  0.77473777  0.81662359  0.13795924     0.06500
H1782       H  0.81382124  0.92277254  0.06543576     0.06300
C1783       C  0.57486070  0.96400286  0.07111583     0.03300
C1784       C  0.57867731  0.92900537  0.07265683    -0.12800
C1785       C  0.61358648  0.93135229  0.09034626     0.00800
C1786       C  0.64353233  0.96861187  0.10516392    -0.11300
C1787       C  0.63975228  0.00258441  0.10290963     0.03300
C1788       C  0.60517594  0.00003867  0.08725751    -0.10800
H1789       H  0.55540404  0.90099629  0.06007397     0.08900
H1790       H  0.67048527  0.97163107  0.11905199     0.06500
H1791       H  0.60867631  0.52693425  0.08027146     0.06300
C1792       C  0.85238180  0.65735425  0.17087427     0.80400
N1793       N  0.86071583  0.69587753  0.17354466    -0.77900
C1794       C  0.83056731  0.70454304  0.17093342     0.82900
N1795       N  0.79231958  0.67468710  0.16374329    -0.77800
C1796       C  0.78408874  0.63624851  0.16067909     0.83000
N1797       N  0.81431157  0.62801639  0.16365438    -0.79500
C1798       C  0.88795739  0.53390981  0.90854139     0.03300
C1799       C  0.88732180  0.57066246  0.90886650    -0.12800
C1800       C  0.85563293  0.57271267  0.88900284     0.00800
C1801       C  0.82713585  0.53935411  0.86755613    -0.11300
C1802       C  0.82666988  0.50320437  0.86825852     0.03300
C1803       C  0.85727824  0.50061078  0.88783985    -0.10800
H1804       H  0.90975951  0.59628250  0.92558203     0.08900
H1805       H  0.80329505  0.54072617  0.85139449     0.06500
H1806       H  0.85899339  0.97566947  0.88494758     0.06300
C1807       C  0.60743229  0.59324450  0.90148105     0.03300
C1808       C  0.64447734  0.59322825  0.90299357    -0.12800
C1809       C  0.67884849  0.62450265  0.88410222     0.00800
C1810       C  0.67515115  0.65318551  0.86207665    -0.11300
C1811       C  0.63993265  0.65471290  0.86214834     0.03300
C1812       C  0.60582615  0.62442847  0.88093488    -0.10800
H1813       H  0.64695971  0.57068008  0.92011985     0.08900
H1814       H  0.70104452  0.67659694  0.84645874     0.06500
H1815       H  0.57860231  0.62633282  0.88109419     0.06300
C1816       C  0.61605268  0.83723665  0.80999819     0.80400
N1817       N  0.61539029  0.80174116  0.81003395    -0.77900
C1818       C  0.65005478  0.80066605  0.80916307     0.82900
N1819       N  0.68576908  0.83545727  0.80954080    -0.77800
C1820       C  0.68673766  0.87102404  0.80936107     0.83000
N1821       N  0.65178425  0.87166698  0.81051701    -0.79500
C1822       C  0.94235967  0.87359756  0.90060824     0.03300
C1823       C  0.90641839  0.83563968  0.90306572    -0.12800
C1824       C  0.90470980  0.80191356  0.88367591     0.00800
C1825       C  0.93743828  0.80700454  0.86082879    -0.11300
C1826       C  0.97273272  0.84349712  0.85912176     0.03300
C1827       C  0.97485939  0.87687540  0.87770161    -0.10800
H1828       H  0.88146812  0.83197529  0.92142292     0.08900
H1829       H  0.93658225  0.78146014  0.84595444     0.06500
H1830       H  0.00319990  0.90484818  0.87668686     0.06300
Zn1831     Zn  0.99818432  0.55417062  0.97171235     1.49700
Zn1832     Zn  0.92638079  0.96177263  0.97281934     1.49400
Zn1833     Zn  0.52027117  0.98406258  0.96639125     1.49100
Zn1834     Zn  0.98430301  0.99856905  0.05019011     1.49500
O1835       O  0.98194450  0.99915553  0.99126547    -1.83900
O1836       O  0.95160522  0.55591205  0.94217577    -0.74500
O1837       O  0.92221302  0.91439594  0.93898207    -0.74400
O1838       O  0.56574639  0.53014839  0.93441181    -0.73900
O1839       O  0.90687306  0.99274448  0.94035862    -0.74600
O1840       O  0.54661595  0.57588827  0.93532674    -0.74200
O1841       O  0.98709406  0.93374458  0.93423595    -0.74700
O1842       O  0.52285394  0.98008472  0.06614224    -0.74100
O1843       O  0.88763527  0.93773472  0.01973800    -0.74900
O1844       O  0.54503902  0.96638772  0.00973897    -0.74300
O1845       O  0.92846580  0.95945175  0.07293310    -0.74700
O1846       O  0.00649822  0.55605890  0.07151821    -0.74700
O1847       O  0.51555316  0.59464912  0.01743034    -0.74400
C1848       C  0.91715160  0.52703478  0.93196232     0.77300
C1849       C  0.95043263  0.90900151  0.92580745     0.77800
C1850       C  0.57138119  0.56460231  0.92478058     0.76800
C1851       C  0.54417480  0.96789983  0.04799852     0.77200
C1852       C  0.89341595  0.93827578  0.05756843     0.78300
C1853       C  0.51610954  0.58999797  0.05536814     0.77400
C1854       C  0.74317789  0.79449085  0.72425515     0.03300
C1855       C  0.78071569  0.82277004  0.70861383    -0.12800
C1856       C  0.81274179  0.81545308  0.70634417     0.00800
C1857       C  0.80913605  0.78095167  0.72370432    -0.11300
C1858       C  0.77385519  0.75336829  0.74377474     0.03300
C1859       C  0.73987374  0.75959306  0.74325941    -0.10800
H1860       H  0.78438767  0.85028211  0.69576984     0.08900
H1861       H  0.83509725  0.77684636  0.72352487     0.06500
H1862       H  0.71150423  0.73737897  0.75616763     0.06300
C1863       C  0.68711459  0.96454593  0.72825628     0.03300
C1864       C  0.65602575  0.97159480  0.71719155    -0.12800
C1865       C  0.66099447  0.01004728  0.71705589     0.00800
C1866       C  0.69699368  0.54260241  0.72758074    -0.11300
C1867       C  0.72553626  0.53579589  0.74671127     0.03300
C1868       C  0.72048624  0.49616636  0.74522465    -0.10800
H1869       H  0.62834681  0.94697068  0.70524801     0.08900
H1870       H  0.70079879  0.57244951  0.72746624     0.06500
H1871       H  0.74355154  0.49080705  0.75730414     0.06300
C1872       C  0.51556714  0.73804936  0.72624942     0.03300
C1873       C  0.98252488  0.74009433  0.74594662    -0.12800
C1874       C  0.94291066  0.70549828  0.74783413     0.00800
C1875       C  0.93616300  0.66966639  0.73003642    -0.11300
C1876       C  0.96745902  0.66624168  0.71321856     0.03300
C1877       C  0.50722758  0.70025073  0.71248575    -0.10800
H1878       H  0.98775265  0.76875660  0.75706813     0.08900
H1879       H  0.90626635  0.64350482  0.73037151     0.06500
H1880       H  0.53137564  0.69694464  0.69949608     0.06300
C1881       C  0.96933481  0.52701015  0.66176469     0.80400
N1882       N  0.94218963  0.98938405  0.65991776    -0.77900
C1883       C  0.95181240  0.95994310  0.66013778     0.82900
N1884       N  0.99088535  0.96969352  0.66181637    -0.77800
C1885       C  0.51914764  0.00862265  0.66601352     0.83000
N1886       N  0.51111078  0.53899361  0.65873990    -0.79500
Zn1887     Zn  0.78024435  0.61048385  0.85127733     1.49700
Zn1888     Zn  0.81385020  0.66498687  0.77223118     1.49400
Zn1889     Zn  0.79133362  0.69866386  0.84954640     1.49100
Zn1890     Zn  0.86845699  0.68729431  0.85201427     1.49500
O1891       O  0.81362247  0.66536457  0.83025681    -1.83900
O1892       O  0.76166487  0.56711212  0.80736753    -0.74500
O1893       O  0.79617341  0.70543838  0.75233245    -0.74400
O1894       O  0.74846371  0.66695579  0.89077365    -0.73900
O1895       O  0.77358758  0.60611861  0.75384699    -0.74600
O1896       O  0.72711986  0.60412318  0.87168011    -0.74200
O1897       O  0.76702522  0.71685316  0.80462507    -0.74700
O1898       O  0.87999743  0.73268559  0.89086396    -0.74100
O1899       O  0.87257970  0.68341138  0.75409378    -0.74900
O1900       O  0.83706762  0.75186171  0.87026707    -0.74300
O1901       O  0.91153227  0.71094638  0.80789454    -0.74700
O1902       O  0.87520151  0.64102074  0.87440724    -0.74700
O1903       O  0.81201811  0.59900816  0.89247177    -0.74400
C1904       C  0.75690199  0.57110730  0.77002261     0.77300
C1905       C  0.77727459  0.72206073  0.76762439     0.77800
C1906       C  0.72009064  0.63096236  0.88522194     0.76800
C1907       C  0.87103067  0.76008925  0.88474224     0.77200
C1908       C  0.90759435  0.70199192  0.77055329     0.78300
C1909       C  0.84844969  0.60718525  0.88813047     0.77400
C1910       C  0.57138163  0.62335044  0.57206735     0.03300
C1911       C  0.57939783  0.66345514  0.56808844    -0.12800
C1912       C  0.61290361  0.69503426  0.58823781     0.00800
C1913       C  0.63843105  0.68570087  0.61036216    -0.11300
C1914       C  0.62928290  0.64601538  0.61612172     0.03300
C1915       C  0.59535459  0.61517683  0.59759080    -0.10800
H1916       H  0.56014347  0.66990974  0.54954375     0.08900
H1917       H  0.66569861  0.70966204  0.62358261     0.06500
H1918       H  0.58941864  0.58466868  0.60062201     0.06300
C1919       C  0.51269941  0.90683568  0.57493688     0.03300
C1920       C  0.97590678  0.87881572  0.59615451    -0.12800
C1921       C  0.97333157  0.84504569  0.61438823     0.00800
C1922       C  0.50900911  0.83938331  0.61077362    -0.11300
C1923       C  0.54455633  0.86666817  0.59069247     0.03300
C1924       C  0.54610913  0.90048892  0.57197577    -0.10800
H1925       H  0.95012365  0.88318607  0.59727803     0.08900
H1926       H  0.50638718  0.81234862  0.62362792     0.06500
H1927       H  0.57245502  0.92110311  0.55493089     0.06300
C1928       C  0.85609873  0.96455416  0.57552670     0.03300
C1929       C  0.81626536  0.93179977  0.57173865    -0.12800
C1930       C  0.78412167  0.93343115  0.59084984     0.00800
C1931       C  0.79255134  0.96796315  0.61287268    -0.11300
C1932       C  0.83186189  0.99955851  0.61778611     0.03300
C1933       C  0.86349358  0.99739117  0.59974209    -0.10800
H1934       H  0.81036094  0.90599129  0.55361605     0.08900
H1935       H  0.76815501  0.97050755  0.62630809     0.06500
H1936       H  0.89281591  0.51944769  0.60067479     0.06300
C1937       C  0.82230321  0.63290407  0.66656907     0.80400
N1938       N  0.78246245  0.62082797  0.66740797    -0.77900
C1939       C  0.77010618  0.64824706  0.66763911     0.82900
N1940       N  0.79776992  0.68785655  0.66557908    -0.77800
C1941       C  0.83755466  0.70010354  0.66486159     0.83000
N1942       N  0.84969515  0.67254743  0.66484128    -0.79500
Zn1943     Zn  0.66323774  0.88543201  0.62707673     1.49700
Zn1944     Zn  0.64827449  0.83232245  0.71042624     1.49400
Zn1945     Zn  0.59501546  0.79476217  0.62603607     1.49100
Zn1946     Zn  0.68489753  0.81653110  0.62590835     1.49500
O1947       O  0.64780004  0.83227591  0.64923081    -1.83900
O1948       O  0.68180678  0.92583090  0.67167357    -0.74500
O1949       O  0.58657412  0.79256979  0.73003973    -0.74400
O1950       O  0.57089525  0.82257401  0.59421020    -0.73900
O1951       O  0.67018650  0.89373409  0.72995454    -0.74600
O1952       O  0.61410819  0.88742985  0.60369366    -0.74200
O1953       O  0.55570309  0.77181108  0.67092483    -0.74700
O1954       O  0.65794226  0.76514736  0.59321545    -0.74100
O1955       O  0.68870888  0.81108585  0.72954640    -0.74900
O1956       O  0.59292251  0.74429048  0.60076679    -0.74300
O1957       O  0.70807030  0.80025607  0.67004947    -0.74700
O1958       O  0.73522316  0.86461842  0.60223766    -0.74700
O1959       O  0.71377967  0.90807089  0.59307855    -0.74400
C1960       C  0.68216853  0.92643133  0.70998593     0.77300
C1961       C  0.55431865  0.77136478  0.70920950     0.77800
C1962       C  0.57908510  0.85907237  0.59409017     0.76800
C1963       C  0.62121056  0.73727677  0.59178342     0.77200
C1964       C  0.70948599  0.79988113  0.70824045     0.78300
C1965       C  0.74196637  0.89954693  0.59300273     0.77400
C1966       C  0.88265113  0.86311484  0.40854722     0.03300
C1967       C  0.84567543  0.85964123  0.39749436    -0.12800
C1968       C  0.81277994  0.82279233  0.38705574     0.00800
C1969       C  0.81586265  0.78851890  0.38759965    -0.11300
C1970       C  0.85241594  0.79052975  0.39576976     0.03300
C1971       C  0.88656509  0.82823061  0.40584091    -0.10800
H1972       H  0.84193443  0.88571290  0.39710032     0.08900
H1973       H  0.79027652  0.76048105  0.37755603     0.06500
H1974       H  0.91525458  0.83023617  0.41164689     0.06300
C1975       C  0.93669729  0.58736465  0.40008727     0.03300
C1976       C  0.89817321  0.58456293  0.39856978    -0.12800
C1977       C  0.89537997  0.61843702  0.38582526     0.00800
C1978       C  0.92987221  0.65306593  0.37368351    -0.11300
C1979       C  0.96626101  0.65430614  0.37169880     0.03300
C1980       C  0.96989477  0.62219181  0.38485748    -0.10800
H1981       H  0.87144227  0.55736305  0.40778817     0.08900
H1982       H  0.92806722  0.67877194  0.36299714     0.06500
H1983       H  0.99943805  0.62553875  0.38461034     0.06300
C1984       C  0.60998108  0.53453854  0.40303250     0.03300
C1985       C  0.64573149  0.57258256  0.40000592    -0.12800
C1986       C  0.68209302  0.57447514  0.38734827     0.00800
C1987       C  0.68189644  0.53938753  0.37673361    -0.11300
C1988       C  0.64642872  0.50322985  0.37571404     0.03300
C1989       C  0.61108965  0.50049878  0.38944101    -0.10800
H1990       H  0.64544470  0.59976135  0.40770304     0.08900
H1991       H  0.70913189  0.54061403  0.36559892     0.06500
H1992       H  0.58428454  0.97248233  0.39002608     0.06300
C1993       C  0.64911279  0.86661077  0.32255756     0.80400
N1994       N  0.68099048  0.86074680  0.32334267    -0.77900
C1995       C  0.67527748  0.82316368  0.32385425     0.82900
N1996       N  0.63742211  0.79141240  0.32473543    -0.77800
C1997       C  0.60545641  0.79715970  0.32334164     0.83000
N1998       N  0.61139217  0.83480211  0.32329819    -0.79500
Zn1999     Zn  0.51732918  0.55271502  0.46378058     1.49700
Zn2000     Zn  0.99515106  0.95906369  0.46479315     1.49400
Zn2001     Zn  0.97979266  0.99803563  0.54374843     1.49100
Zn2002     Zn  0.92319248  0.97959712  0.46544320     1.49500
O2003       O  0.97845633  0.99704311  0.48460259    -1.83900
O2004       O  0.56522032  0.55565291  0.43171328    -0.74500
O2005       O  0.51352839  0.93712466  0.51254004    -0.74400
O2006       O  0.52066856  0.55516467  0.56364797    -0.73900
O2007       O  0.54635095  0.99148086  0.43350601    -0.74600
O2008       O  0.54255453  0.59344364  0.50897887    -0.74200
O2009       O  0.99444965  0.95728351  0.56533140    -0.74700
O2010       O  0.88443642  0.96428082  0.51218841    -0.74100
O2011       O  0.94936433  0.91008853  0.43434603    -0.74900
O2012       O  0.92459125  0.98313680  0.56579983    -0.74300
O2013       O  0.90274348  0.92814184  0.43399898    -0.74700
O2014       O  0.91799158  0.52293831  0.43038248    -0.74700
O2015       O  0.98231202  0.57024784  0.42992219    -0.74400
C2016       C  0.57203138  0.52724403  0.42311125     0.77300
C2017       C  0.50821961  0.93648882  0.55044405     0.77800
C2018       C  0.54210725  0.58933651  0.54704403     0.76800
C2019       C  0.88979453  0.96936905  0.55005460     0.77200
C2020       C  0.91385044  0.90269090  0.42573663     0.78300
C2021       C  0.94564426  0.55806944  0.42067442     0.77400
C2022       C  0.74182602  0.96567748  0.23929326     0.03300
C2023       C  0.77348783  0.96349321  0.25816507    -0.12800
C2024       C  0.80668073  0.99780569  0.27386306     0.00800
C2025       C  0.80683737  0.53391677  0.26708808    -0.11300
C2026       C  0.77556545  0.53765662  0.24988464     0.03300
C2027       C  0.74347206  0.00354132  0.23714553    -0.10800
H2028       H  0.77360040  0.93549708  0.25823462     0.08900
H2029       H  0.83288395  0.56007140  0.27937121     0.06500
H2030       H  0.71958960  0.00591237  0.22243049     0.06300
C2031       C  0.68526655  0.74870571  0.25344512     0.03300
C2032       C  0.72145499  0.74712592  0.25080643    -0.12800
C2033       C  0.72577054  0.71857938  0.27368257     0.00800
C2034       C  0.69443435  0.69257881  0.29882330    -0.11300
C2035       C  0.65747602  0.69108191  0.29881513     0.03300
C2036       C  0.65347072  0.72021818  0.27732974    -0.10800
H2037       H  0.74512526  0.76682239  0.23041661     0.08900
H2038       H  0.69731534  0.67011145  0.31570681     0.06500
H2039       H  0.62460447  0.71848876  0.27602224     0.06300
C2040       C  0.52209635  0.79992139  0.24472620     0.03300
C2041       C  0.52626297  0.83325765  0.26624637    -0.12800
C2042       C  0.99169152  0.83018852  0.28432276     0.00800
C2043       C  0.95496563  0.79483692  0.28362373    -0.11300
C2044       C  0.95015426  0.76043792  0.26427424     0.03300
C2045       C  0.98391439  0.76212123  0.24448847    -0.10800
H2046       H  0.55462569  0.86110507  0.26603308     0.08900
H2047       H  0.92938472  0.79462801  0.29776595     0.06500
H2048       H  0.98060787  0.73623633  0.22825596     0.06300
C2049       C  0.94952527  0.00348631  0.33707549     0.80400
N2050       N  0.94994596  0.96855432  0.33628177    -0.77900
C2051       C  0.98516903  0.96845747  0.33847229     0.82900
N2052       N  0.51832277  0.50418225  0.33949773    -0.77800
C2053       C  0.51866534  0.53956165  0.34145442     0.83000
N2054       N  0.98357623  0.53857541  0.33534987    -0.79500
Zn2055     Zn  0.59475347  0.81581491  0.13723165     1.49700
Zn2056     Zn  0.66678766  0.79580077  0.14103931     1.49400
Zn2057     Zn  0.68753022  0.88703036  0.13544931     1.49100
Zn2058     Zn  0.64933351  0.83761020  0.21756015     1.49500
O2059       O  0.64947024  0.83402477  0.15831316    -1.83900
O2060       O  0.57475542  0.76369986  0.10569274    -0.74500
O2061       O  0.71942879  0.82395757  0.11131501    -0.74400
O2062       O  0.65758538  0.90562519  0.09928691    -0.73900
O2063       O  0.62128246  0.74571474  0.11382076    -0.74600
O2064       O  0.59233119  0.86297093  0.10942458    -0.74200
O2065       O  0.73861474  0.88883511  0.11185141    -0.74700
O2066       O  0.69092317  0.89587586  0.23612285    -0.74100
O2067       O  0.68135313  0.77308568  0.18887882    -0.74900
O2068       O  0.71092299  0.93027338  0.17893024    -0.74300
O2069       O  0.66392795  0.79676968  0.24145444    -0.74700
O2070       O  0.59235273  0.82263077  0.23714412    -0.74700
O2071       O  0.55352428  0.79916098  0.18283893    -0.74400
C2072       C  0.58573702  0.73729147  0.10420227     0.77300
C2073       C  0.74648582  0.86058142  0.10662665     0.77800
C2074       C  0.62081048  0.89713511  0.09793608     0.82800
C2075       C  0.71167263  0.92902750  0.21724115     0.77200
C2076       C  0.67719337  0.77488316  0.22669855     0.78300
C2077       C  0.55758936  0.80623713  0.22057249     0.77400
Zn2078     Zn  0.75997211  0.63679673  0.29334095     1.49700
Zn2079     Zn  0.84437463  0.64478133  0.29621037     1.49400
Zn2080     Zn  0.83789274  0.72084459  0.30152350     1.49100
Zn2081     Zn  0.81049525  0.66267545  0.37670890     1.49500
O2082       O  0.81238145  0.66573755  0.31813366    -1.83900
O2083       O  0.75273235  0.58360683  0.26856001    -0.74500
O2084       O  0.90135277  0.69263486  0.28299911    -0.74400
O2085       O  0.79271532  0.73299096  0.28794171    -0.73900
O2086       O  0.81583080  0.60838024  0.24915550    -0.74600
O2087       O  0.75031782  0.67480513  0.25894707    -0.74200
O2088       O  0.87966103  0.73191868  0.25861441    -0.74700
O2089       O  0.82883580  0.72029672  0.39747792    -0.74100
O2090       O  0.84748562  0.60862010  0.33814112    -0.74900
O2091       O  0.86929246  0.75692881  0.34791880    -0.74300
O2092       O  0.84888538  0.64179856  0.39364037    -0.74700
O2093       O  0.75157585  0.62329362  0.39289940    -0.74700
O2094       O  0.71801495  0.61884036  0.33641642    -0.74400
C2095       C  0.78040549  0.57852478  0.25326434     0.77300
C2096       C  0.90853257  0.72541163  0.26622514     0.77800
C2097       C  0.75921510  0.70996084  0.27061077     0.76800
C2098       C  0.85334518  0.75451679  0.38205136     0.77200
C2099       C  0.85885706  0.61918865  0.37423033     0.78300
C2100       C  0.71858047  0.61024914  0.37327713     0.77400
C2101       C  0.50522856  0.91781663  0.35107735    -0.26100
C2102       C  0.98598264  0.93224718  0.32613245    -0.14200
C2103       C  0.96955222  0.91442851  0.28857090     0.36400
C2104       C  0.97277002  0.88175880  0.27531962    -0.25600
C2105       C  0.99244042  0.86664156  0.29876195    -0.14800
C2106       C  0.50948099  0.88567981  0.33734663     0.37500
N2107       N  0.52826583  0.86995878  0.36297985    -0.89000
H2108       H  0.51631151  0.93036351  0.38064158     0.18600
H2109       H  0.95972897  0.86798445  0.24652258     0.18600
N2110       N  0.95040698  0.93010417  0.26331407    -0.88100
H2111       H  0.55306116  0.87199061  0.34774590     0.36000
H2112       H  0.50780902  0.83966293  0.36811582     0.41100
H2113       H  0.92095207  0.90719862  0.25780280     0.40700
H2114       H  0.96566372  0.93834397  0.23575776     0.35600
C2115       C  0.56220260  0.61331824  0.35264728    -0.26100
C2116       C  0.55647186  0.57781305  0.33451790    -0.14200
C2117       C  0.58490397  0.58006611  0.30619930     0.36400
C2118       C  0.61685538  0.61739718  0.29508689    -0.25600
C2119       C  0.62206646  0.65308229  0.31226144    -0.14800
C2120       C  0.59490685  0.65084250  0.34224583     0.37500
N2121       N  0.60050057  0.68571323  0.36340031    -0.89000
H2122       H  0.54123548  0.61165568  0.37520210     0.18600
H2123       H  0.63772305  0.61849490  0.27236129     0.18600
N2124       N  0.58086287  0.54470935  0.28742614    -0.88100
H2125       H  0.59990580  0.70566203  0.34261162     0.36000
H2126       H  0.62889389  0.69943165  0.37692085     0.41100
H2127       H  0.60697987  0.54357667  0.29348376     0.40700
H2128       H  0.57897605  0.54734447  0.25623086     0.35600
C2129       C  0.87868863  0.52285275  0.26895445    -0.26100
C2130       C  0.84235273  0.99739831  0.29047939    -0.14200
C2131       C  0.83949602  0.97098449  0.32139967     0.36400
C2132       C  0.87494901  0.97387878  0.33718158    -0.25600
C2133       C  0.91296201  0.00347455  0.32347719    -0.14800
C2134       C  0.91400899  0.52623699  0.28458715     0.37500
N2135       N  0.95177678  0.55337236  0.26623483    -0.89000
H2136       H  0.88067873  0.54118715  0.24333211     0.18600
H2137       H  0.87300774  0.95322723  0.36035476     0.18600
N2138       N  0.80086899  0.94200289  0.33707883    -0.88100
H2139       H  0.95580596  0.58222563  0.26828133     0.36000
H2140       H  0.95034211  0.54585860  0.23570966     0.41100
H2141       H  0.78828203  0.95774010  0.35058397     0.40700
H2142       H  0.80406905  0.92510737  0.35986986     0.35600
C2143       C  0.66917498  0.95630921  0.38352864    -0.26100
C2144       C  0.64787798  0.97027680  0.36116752    -0.14200
C2145       C  0.63133881  0.95313753  0.32337153     0.36400
C2146       C  0.63466259  0.92077291  0.30956644    -0.25600
C2147       C  0.65449454  0.90568566  0.33273473    -0.14800
C2148       C  0.67278459  0.92403831  0.36964922     0.37500
N2149       N  0.69281866  0.90842385  0.39395118    -0.89000
H2150       H  0.67130340  0.46047203  0.41542987     0.18600
H2151       H  0.62119124  0.90685703  0.28102180     0.18600
N2152       N  0.61177869  0.96845696  0.29830267    -0.88100
H2153       H  0.70221686  0.92389977  0.42135052     0.36000
H2154       H  0.71899518  0.91411139  0.37874636     0.41100
H2155       H  0.63217192  0.99862034  0.29250436     0.40700
H2156       H  0.58723587  0.96651828  0.31392691     0.35600
C2157       C  0.51338780  0.69586871  0.33238162    -0.26100
C2158       C  0.50339360  0.69797903  0.37260478    -0.14200
C2159       C  0.52311520  0.73413922  0.39411315     0.36400
C2160       C  0.55491236  0.76732533  0.37559380    -0.25600
C2161       C  0.56677046  0.76459337  0.33621425    -0.14800
C2162       C  0.54506752  0.72892995  0.31372893     0.37500
N2163       N  0.55367814  0.72538390  0.27220458    -0.89000
H2164       H  0.99691549  0.66787650  0.29716333     0.18600
H2165       H  0.57182280  0.79489771  0.39260435     0.18600
N2166       N  0.51178061  0.73646613  0.43495979    -0.88100
H2167       H  0.55970356  0.70184863  0.26992864     0.36000
H2168       H  0.57915424  0.75120373  0.26213574     0.41100
H2169       H  0.00179768  0.74373799  0.42959657     0.40700
H2170       H  0.53035461  0.76510556  0.44684078     0.35600
C2171       C  0.70472145  0.79491131  0.36900599    -0.26100
C2172       C  0.70911255  0.81774601  0.33453284    -0.14200
C2173       C  0.74723633  0.84023966  0.31625693     0.36400
C2174       C  0.78041542  0.84138010  0.33455570    -0.25600
C2175       C  0.77642067  0.82059373  0.37042825    -0.14800
C2176       C  0.73800659  0.79659275  0.38776206     0.37500
N2177       N  0.73172495  0.77499548  0.42491797    -0.89000
H2178       H  0.67556525  0.77794156  0.38334303     0.18600
H2179       H  0.80974060  0.85879573  0.32063945     0.18600
N2180       N  0.75356064  0.86231262  0.27951946    -0.88100
H2181       H  0.71906113  0.78607546  0.44559210     0.36000
H2182       H  0.75873241  0.78039702  0.43782664     0.41100
H2183       H  0.72670652  0.85843386  0.26780992     0.40700
H2184       H  0.76463557  0.85036613  0.25802108     0.35600
C2185       C  0.81931972  0.56904708  0.68408129    -0.26100
C2186       C  0.83471090  0.60295297  0.65938899    -0.14200
C2187       C  0.85697693  0.60505798  0.62466427     0.36400
C2188       C  0.85877994  0.57104953  0.61271018    -0.25600
C2189       C  0.83877790  0.53532611  0.63481954    -0.14800
C2190       C  0.82168137  0.53543001  0.67253811     0.37500
N2191       N  0.80689198  0.50217608  0.69973754    -0.89000
H2192       H  0.80418254  0.56814279  0.71179049     0.18600
H2193       H  0.86045400  0.06763729  0.57754561     0.18600
N2194       N  0.87515389  0.64053169  0.60014514    -0.88100
H2195       H  0.82995328  0.49587048  0.70516563     0.36000
H2196       H  0.78270530  0.47697174  0.68679053     0.41100
H2197       H  0.85202770  0.64367566  0.58730193     0.40700
H2198       H  0.89109280  0.63732226  0.57620688     0.35600
C2199       C  0.89928770  0.76298029  0.68290891    -0.26100
C2200       C  0.86721418  0.74200260  0.65620223    -0.14200
C2201       C  0.86704133  0.75900209  0.61865857     0.36400
C2202       C  0.90103651  0.79502544  0.60700765    -0.25600
C2203       C  0.93500202  0.81385475  0.63208556    -0.14800
C2204       C  0.93297785  0.79896176  0.67145902     0.37500
N2205       N  0.96448903  0.81973822  0.70036958    -0.89000
H2206       H  0.89878002  0.75064800  0.71228877     0.18600
H2207       H  0.90221706  0.80680776  0.57708174     0.18600
N2208       N  0.83353159  0.73842798  0.59157097    -0.88100
H2209       H  0.96957145  0.84890699  0.70329351     0.36000
H2210       H  0.99084624  0.82114831  0.69004549     0.41100
H2211       H  0.83229581  0.71179266  0.58260043     0.40700
H2212       H  0.83806753  0.75522275  0.56538465     0.35600
C2213       C  0.67331981  0.61615240  0.61361127    -0.26100
C2214       C  0.65864508  0.63727977  0.63580870    -0.14200
C2215       C  0.67519186  0.65265841  0.67422317     0.36400
C2216       C  0.70988307  0.65238852  0.68638539    -0.25600
C2217       C  0.72754262  0.63590424  0.66161382    -0.14800
C2218       C  0.70744190  0.61487480  0.62643207     0.37500
N2219       N  0.72377415  0.59551567  0.60202326    -0.89000
H2220       H  0.65991566  0.60306360  0.58473934     0.18600
H2221       H  0.72412178  0.66671685  0.71445130     0.18600
N2222       N  0.65732836  0.66822177  0.70152656    -0.88100
H2223       H  0.70603772  0.58265959  0.57637453     0.36000
H2224       H  0.72204915  0.57181718  0.61884824     0.41100
H2225       H  0.62725796  0.64632809  0.70578974     0.40700
H2226       H  0.65837389  0.69360197  0.68923129     0.35600
C2227       C  0.97573437  0.59201939  0.64520531    -0.26100
C2228       C  0.95869849  0.55795380  0.66962639    -0.14200
C2229       C  0.44097131  0.55907621  0.70291712     0.36400
C2230       C  0.44113227  0.59389081  0.71586290    -0.25600
C2231       C  0.95990973  0.62788568  0.69545232    -0.14800
C2232       C  0.97590885  0.62679465  0.65752353     0.37500
N2233       N  0.99325971  0.66131247  0.63196447    -0.89000
H2234       H  0.99058175  0.59220463  0.61734733     0.18600
H2235       H  0.42788216  0.59403977  0.74469548     0.18600
N2236       N  0.42277077  0.52364062  0.72748929    -0.88100
H2237       H  0.97800802  0.65320298  0.60438508     0.36000
H2238       H  0.02320104  0.66941761  0.62661592     0.41100
H2239       H  0.39839550  0.50140163  0.71137674     0.40700
H2240       H  0.41077252  0.52852470  0.75380738     0.35600
C2241       C  0.61709423  0.53988639  0.71388820    -0.26100
C2242       C  0.62924904  0.01659448  0.69980110    -0.14200
C2243       C  0.61113801  0.99900243  0.66257099     0.36400
C2244       C  0.57627506  0.99907744  0.65067279    -0.25600
C2245       C  0.56034506  0.01789924  0.67429334    -0.14800
C2246       C  0.58247976  0.54036019  0.70132846     0.37500
N2247       N  0.56587578  0.55934500  0.72595206    -0.89000
H2248       H  0.63084752  0.55349623  0.74248497     0.18600
H2249       H  0.56063395  0.98322871  0.62355423     0.18600
N2250       N  0.62778387  0.98038011  0.63750975    -0.88100
H2251       H  0.58451774  0.57375511  0.75066825     0.36000
H2252       H  0.53859845  0.53685508  0.73769626     0.41100
H2253       H  0.65647975  0.00267428  0.62867731     0.40700
H2254       H  0.61097420  0.96915352  0.61109254     0.35600
C2255       C  0.88461493  0.86482463  0.71590149    -0.26100
C2256       C  0.85154465  0.84667999  0.68977335    -0.14200
C2257       C  0.85481186  0.86241195  0.65050907     0.36400
C2258       C  0.88889635  0.89866144  0.64025043    -0.25600
C2259       C  0.92027266  0.91860852  0.66793074    -0.14800
C2260       C  0.91895886  0.90071923  0.70528248     0.37500
N2261       N  0.95117857  0.92046980  0.73368413    -0.89000
H2262       H  0.88268425  0.85268430  0.74580560     0.18600
H2263       H  0.89046988  0.91178121  0.61099139     0.18600
N2264       N  0.82434956  0.84207755  0.62049620    -0.88100
H2265       H  0.96176697  0.90098213  0.74083457     0.36000
H2266       H  0.93957054  0.92581923  0.76003539     0.41100
H2267       H  0.79752117  0.84006190  0.63001058     0.40700
H2268       H  0.81976557  0.81308352  0.61710778     0.35600
C2269       C  0.55388434  0.81065552  0.84897582    -0.26100
C2270       C  0.57929342  0.83811327  0.82011592    -0.14200
C2271       C  0.57073550  0.86744047  0.80518648     0.36400
C2272       C  0.53700468  0.86849861  0.81939985    -0.25600
C2273       C  0.51207959  0.84124388  0.84865504    -0.14800
C2274       C  0.52093408  0.81239490  0.86385372     0.37500
N2275       N  0.49717398  0.78553454  0.89536826    -0.89000
H2276       H  0.56053876  0.78866648  0.86153705     0.18600
H2277       H  0.02154085  0.88422827  0.79620920     0.18600
N2278       N  0.59500688  0.89581100  0.77510663    -0.88100
H2279       H  0.51601919  0.78984701  0.91990846     0.36000
H2280       H  0.99056756  0.76803023  0.89755025     0.41100
H2281       H  0.59690600  0.88010068  0.75022595     0.40700
H2282       H  0.62370283  0.91431979  0.78686023     0.35600
C2283       C  0.61618926  0.69038071  0.81708279    -0.26100
C2284       C  0.64183380  0.69164800  0.84779455    -0.14200
C2285       C  0.67119004  0.72883558  0.86381751     0.36400
C2286       C  0.67493781  0.76408526  0.84857015    -0.25600
C2287       C  0.64894252  0.76305020  0.81850382    -0.14800
C2288       C  0.61943641  0.72600518  0.80242252     0.37500
N2289       N  0.59310479  0.72455977  0.77112269    -0.89000
H2290       H  0.59392866  0.66186625  0.80438501     0.18600
H2291       H  0.69703877  0.79233887  0.86190795     0.18600
N2292       N  0.69656506  0.73079988  0.89649045    -0.88100
H2293       H  0.56352516  0.70718765  0.78131712     0.36000
H2294       H  0.59685924  0.71010844  0.74614916     0.41100
H2295       H  0.69210675  0.74565672  0.92064779     0.40700
H2296       H  0.72647859  0.74790873  0.88714006     0.35600
C2297       C  0.79691965  0.94975664  0.81727866    -0.26100
C2298       C  0.79490326  0.97291861  0.84893395    -0.14200
C2299       C  0.75744563  0.96346073  0.86574772     0.36400
C2300       C  0.72255522  0.93152445  0.85004496    -0.25600
C2301       C  0.72425410  0.90768109  0.81910002    -0.14800
C2302       C  0.76160024  0.91683099  0.80211691     0.37500
N2303       N  0.76338121  0.89291257  0.76970124    -0.89000
H2304       H  0.82586057  0.95758201  0.80434469     0.18600
H2305       H  0.69392534  0.92394145  0.86361756     0.18600
N2306       N  0.74955973  0.48078027  0.90196730    -0.88100
H2307       H  0.79319688  0.90365692  0.76079939     0.36000
H2308       H  0.74856800  0.89634991  0.74494614     0.41100
H2309       H  0.76285227  0.47571525  0.92708458     0.40700
H2310       H  0.71950110  0.47039296  0.90950872     0.35600
C2311       C  0.67508314  0.55818013  0.14380607    -0.26100
C2312       C  0.67902970  0.53921697  0.10933962    -0.14200
C2313       C  0.71640787  0.55547611  0.08947431     0.36400
C2314       C  0.74969745  0.58829213  0.10627673    -0.25600
C2315       C  0.74653152  0.60565011  0.14230322    -0.14800
C2316       C  0.70856258  0.59164226  0.16025291     0.37500
N2317       N  0.70340171  0.60990870  0.19560304    -0.89000
H2318       H  0.64619212  0.54611467  0.15868712     0.18600
H2319       H  0.77850779  0.59994782  0.09138315     0.18600
N2320       N  0.71220357  0.04251771  0.05360167    -0.88100
H2321       H  0.71294116  0.63984325  0.18898743     0.36000
H2322       H  0.72180069  0.60904406  0.21820393     0.41100
H2323       H  0.69011204  0.04179877  0.03463977     0.40700
H2324       H  0.70658797  0.01328356  0.05747700     0.35600
C2325       C  0.85495061  0.79715372  0.11270256    -0.26100
C2326       C  0.84424401  0.81779141  0.14040109    -0.14200
C2327       C  0.83456163  0.80379738  0.18060104     0.36400
C2328       C  0.83260171  0.76761010  0.19091029    -0.25600
C2329       C  0.84047406  0.74569419  0.16230498    -0.14800
C2330       C  0.85286820  0.76119001  0.12315920     0.37500
N2331       N  0.86119691  0.73977051  0.09277581    -0.89000
H2332       H  0.86226933  0.80760504  0.08185540     0.18600
H2333       H  0.82398614  0.75605669  0.22102209     0.18600
N2334       N  0.82563408  0.82480638  0.21115673    -0.88100
H2335       H  0.83562988  0.71162662  0.08873120     0.36000
H2336       H  0.88467126  0.73569776  0.10291135     0.41100
H2337       H  0.82968879  0.85200905  0.20040883     0.40700
H2338       H  0.84661192  0.83215685  0.23436982     0.35600
C2339       C  0.91295043  0.65437471  0.19208170    -0.26100
C2340       C  0.88472774  0.64889291  0.16245350    -0.14200
C2341       C  0.88831059  0.63677067  0.12334599     0.36400
C2342       C  0.92109589  0.63220650  0.11386219    -0.25600
C2343       C  0.95092783  0.64055999  0.14257655    -0.14800
C2344       C  0.94629471  0.65053193  0.18244352     0.37500
N2345       N  0.97508585  0.65720665  0.21327886    -0.89000
H2346       H  0.90951442  0.66230465  0.22236345     0.18600
H2347       H  0.92480639  0.62507491  0.08304824     0.18600
N2348       N  0.85989566  0.63136091  0.09251785    -0.88100
H2349       H  0.00280847  0.68147603  0.20504536     0.36000
H2350       H  0.97821330  0.63182342  0.21491141     0.41100
H2351       H  0.84757114  0.60216827  0.08131503     0.40700
H2352       H  0.87536442  0.65120908  0.06901683     0.35600
loop_ 
_geom_bond_atom_site_label_1 
_geom_bond_atom_site_label_2 
_geom_bond_distance 
_geom_bond_site_symmetry_2 
_ccdc_geom_bond_type 
C1            C2   1.427       .  A
C1         C1182   1.399   1_455  A
C1           C89   1.483       .  S
C2            C3   1.422       .  A
C2            H7   1.083       .  S
C3            C4   1.403       .  A
C3          C308   1.495       .  S
C4         C1181   1.394   1_455  A
C4            H8   1.084       .  S
C5            C6   1.391       .  A
C5         C1180   1.390       .  A
C5          C579   1.468       .  S
C6         C1177   1.401       .  A
C6            H9   1.085       .  S
C10          C11   1.401       .  A
C10          C15   1.426       .  A
C10          C88   1.485       .  S
C11          C12   1.393       .  A
C11          H16   1.085       .  S
C12          C13   1.396       .  A
C12         C562   1.477       .  S
C13          C14   1.405       .  A
C13          H17   1.085       .  S
C14          C15   1.421       .  A
C14         C309   1.497       .  S
C15          H18   1.083       .  S
C19          C20   1.429       .  A
C19          C24   1.397       .  A
C19          C87   1.477       .  S
C20          C21   1.425       .  A
C20          H25   1.082       .  S
C21          C22   1.407       .  A
C21         C310   1.502       .  S
C22          C23   1.390       .  A
C22          H26   1.085       .  S
C23          C24   1.383       .  A
C23        C1136   1.463       .  S
C24         H615   1.086       .  S
H27         C612   1.085       .  S
C28         C576   1.462       .  S
C28          N29   1.355       .  A
C28          N33   1.351       .  A
N29          C30   1.358       .  A
C30         C565   1.466       .  S
C30          N31   1.360       .  A
N31          C32   1.356       .  A
C32         C551   1.466       .  S
C32          N33   1.354       .  A
C34          C35   1.427       .  A
C34          C39   1.411       .  A
C34          C84   1.491       .  S
C35          C36   1.420       .  A
C35          H40   1.083       .  S
C36          C37   1.393       .  A
C36         C145   1.480       .  S
C37          C38   1.382       .  A
C37          H41   1.084       .  S
C38          C39   1.389       .  A
C38        C1122   1.469   1_545  S
C39         H630   1.084   1_545  S
H42         C627   1.084       .  S
C43          C44   1.425       .  A
C43          C48   1.413       .  A
C43          C86   1.490       .  S
C44          C45   1.417       .  A
C44          H49   1.083       .  S
C45          C46   1.393       .  A
C45         C142   1.478       .  S
C46          C47   1.382       .  A
C46          H50   1.085       .  S
C47          C48   1.393       .  A
C47         C520   1.470       .  S
C48          H51   1.084       .  S
C52         C506   1.470       .  S
C52          N53   1.358       .  A
C52          N57   1.350       .  A
N53          C54   1.355       .  A
C54         C523   1.466       .  S
C54          N55   1.358       .  A
N55          C56   1.354       .  A
C56         C537   1.465       .  S
C56          N57   1.354       .  A
C58          C59   1.426       .  A
C58          C63   1.413       .  A
C58          C85   1.491       .  S
C59          C60   1.418       .  A
C59          H64   1.083       .  S
C60          C61   1.393       .  A
C60         C143   1.479       .  S
C61          C62   1.382       .  A
C61          H65   1.084       .  S
C62          C63   1.391       .  A
C62        C1685   1.471       .  S
C63          H66   1.084       .  S
Zn67         O72   2.073       .  S
Zn67       O1252   2.015       .  S
Zn67       O1259   2.035   1_556  S
Zn67        O659   1.986       .  S
Zn68         O73   2.074       .  S
Zn68         O75   2.022       .  S
Zn68         O79   2.034   1_556  S
Zn68         O71   1.981       .  S
Zn69         O80   2.023   1_556  S
Zn69        O662   2.061       .  S
Zn69       O1253   1.996   1_455  S
Zn69       O1247   1.975   1_455  S
Zn70         O81   2.058       .  S
Zn70       O1254   2.073       .  S
Zn70        O670   2.060       .  S
Zn70         O71   1.960   1_554  S
O71        Zn655   1.987       .  S
O71       Zn1245   1.973       .  S
O72          C84   1.277       .  A
O73          C85   1.278       .  A
O74        Zn657   2.068   1_545  S
O74          C86   1.277       .  A
O75         C672   1.278       .  A
O76       Zn1243   2.004   1_455  S
O76          C86   1.275       .  A
O77       Zn1245   1.991       .  S
O77          C85   1.274       .  A
O78       Zn1246   2.056   1_455  S
O78          C87   1.279       .  A
O79          C88   1.273       .  A
O80          C87   1.271       .  A
O81          C88   1.281       .  A
O82        Zn658   2.047   1_545  S
O82        C1265   1.280       .  A
O83       Zn1243   2.033   1_454  S
O83          C89   1.272       .  A
C84         O663   1.276   1_545  A
C89        O1258   1.280       .  A
C90          C91   1.400       .  A
C90          C95   1.435       .  A
C90         C200   1.507       .  S
C91          C92   1.394       .  A
C91          H96   1.085       .  S
C92          C93   1.394       .  A
C92         C492   1.476       .  S
C93          C94   1.404       .  A
C93          H97   1.085       .  S
C94          C95   1.441       .  A
C94         C141   1.506       .  S
C95          H98   1.082       .  S
C99         C100   1.402       .  A
C99         C692   1.436       .  A
C99         C196   1.511       .  S
C100        C101   1.396       .  A
C100        H105   1.085       .  S
C101        C690   1.390       .  A
C101        C478   1.479       .  S
C102        C103   1.401       .  A
C102        C689   1.390       .  A
C102        H106   1.085       .  S
C103        C104   1.445   1_545  A
C103        C140   1.507       .  S
C104        C687   1.439       .  A
C104        H107   1.082       .  S
C108        C113   1.401       .  A
C108       C1285   1.434   1_455  A
C108        C197   1.505       .  S
C109        C110   1.439       .  A
C109       C1284   1.434       .  A
C109        H114   1.083       .  S
C110        C111   1.400       .  A
C110        C144   1.500       .  S
C111        C112   1.389       .  A
C111        H115   1.085       .  S
C112       C1289   1.394       .  A
C112        C467   1.476       .  S
C113       C1288   1.396   1_455  A
C113        H116   1.085       .  S
C117        C464   1.461       .  S
C117        N706   1.354   1_545  A
C117       N1298   1.356       .  A
N118        C119   1.355       .  A
N118        C705   1.354       .  A
C119        C495   1.461       .  S
C119        N120   1.354       .  A
N120       C1297   1.356       .  A
C121        C481   1.464       .  S
C121       N1296   1.355   1_455  A
C121        N710   1.354       .  A
N122       C1293   1.356   1_455  A
N122        C709   1.353       .  A
Zn123       O128   2.063       .  S
Zn123       O132   2.044       .  S
Zn123       O139   2.026       .  S
Zn123       O127   1.973       .  S
Zn124       O129   2.105       .  S
Zn124       O131   2.109       .  S
Zn124       O135   2.091       .  S
Zn124       O127   1.921       .  S
Zn125       O130   2.023       .  S
Zn125       O133   2.058       .  S
Zn125       O136   2.046       .  S
Zn125       O127   1.973       .  S
Zn126       O134   2.025       .  S
Zn126       O137   2.057       .  S
Zn126       O138   2.049       .  S
Zn126       O127   1.975       .  S
O128        C140   1.274       .  A
O129        C141   1.288       .  A
O130        C142   1.279       .  A
O131        C140   1.289       .  A
O132        C142   1.273       .  A
O133        C141   1.273       .  A
O134        C143   1.279       .  A
O135        C144   1.287       .  A
O136        C143   1.273       .  A
O137        C144   1.274       .  A
O138        C145   1.273       .  A
O139        C145   1.279       .  A
C146        C147   1.426       .  A
C146        C151   1.400       .  A
C146        C254   1.485       .  S
C147        C148   1.421       .  A
C147        H152   1.083       .  S
C148        C149   1.405       .  A
C148        C199   1.500       .  S
C149        C150   1.399       .  A
C149        H153   1.083       .  S
C150        C151   1.394       .  A
C150        C450   1.480       .  S
C151        H154   1.085       .  S
C155        C160   1.425       .  A
C155       C1332   1.401   1_455  A
C155        C253   1.484       .  S
C156        C157   1.396       .  A
C156       C1331   1.403       .  A
C156        H161   1.084       .  S
C157       C1334   1.400       .  A
C157        C439   1.482       .  S
C158        C159   1.405       .  A
C158       C1333   1.397   1_455  A
C158        H162   1.084       .  S
C159        C160   1.420       .  A
C159        C198   1.496       .  S
C160        H163   1.083       .  S
C164        C165   1.422       .  A
C164        C169   1.401       .  A
C164        C255   1.476       .  S
C165        C166   1.416       .  A
C165        H170   1.083       .  S
C166        C167   1.405       .  A
C166        C201   1.492       .  S
C167        C168   1.397       .  A
C167        H171   1.084       .  S
C168        C169   1.393       .  A
C168       C1013   1.477       .  S
C169        H760   1.085       .  S
H172        C757   1.085   1_545  S
C173        C422   1.467       .  S
C173        N174   1.356       .  A
C173        N178   1.356       .  A
N174        C175   1.355       .  A
C175        C453   1.471       .  S
C175        N176   1.358       .  A
N176        C177   1.357       .  A
C177        C436   1.471       .  S
C177        N178   1.358       .  A
Zn179       O184   1.998       .  S
Zn179       O188   2.071       .  S
Zn179       O195   2.022       .  S
Zn179       O183   1.965       .  S
Zn180       O185   2.171       .  S
Zn180       O187   2.182       .  S
Zn180       O191   2.174       .  S
Zn180       O183   2.032       .  S
Zn181       O186   2.030       .  S
Zn181       O189   1.988       .  S
Zn181       O192   2.077       .  S
Zn181       O183   1.966       .  S
Zn182       O190   2.037       .  S
Zn182       O193   1.992       .  S
Zn182       O194   2.067       .  S
Zn182       O183   1.965       .  S
O184        C196   1.271       .  A
O185        C197   1.290       .  A
O186        C198   1.278       .  A
O187        C196   1.290       .  A
O188        C198   1.277       .  A
O189        C197   1.270       .  A
O190        C199   1.279       .  A
O191        C200   1.290       .  A
O192        C199   1.277       .  A
O193        C200   1.271       .  A
O194        C201   1.277       .  A
O195        C201   1.278       .  A
C202        C203   1.406       .  A
C202        C207   1.426       .  A
C202        C256   1.496       .  S
C203        C204   1.389       .  A
C203        H208   1.083       .  S
C204        C205   1.382       .  A
C204        C411   1.460       .  S
C205        C206   1.393       .  A
C205        H209   1.086       .  S
C206        C207   1.425       .  A
C206        C334   1.473       .  S
C207        H210   1.083       .  S
C211        C212   1.429       .  A
C211        C216   1.405       .  A
C211        C257   1.499       .  S
C212        C213   1.428       .  A
C212        H217   1.082       .  S
C213        C214   1.393       .  A
C213        C335   1.472       .  S
C214        C215   1.378       .  A
C214        H218   1.087       .  S
C215        C216   1.383       .  A
C215       C1570   1.454       .  S
C216        H219   1.078       .  S
C220        C221   1.430       .  A
C220        C225   1.407       .  A
C220        C252   1.501       .  S
C221        C222   1.427       .  A
C221        H226   1.083       .  S
C222        C223   1.392       .  A
C222        C336   1.474       .  S
C223        C224   1.381       .  A
C223        H227   1.087       .  S
C224        C225   1.388       .  A
C224        C968   1.460   1_545  S
C225        H816   1.081   1_545  S
H228        C813   1.083       .  S
C229        C383   1.456       .  S
C229        N230   1.352       .  A
C229        N234   1.354       .  A
N230        C231   1.352       .  A
C231        C408   1.456       .  S
C231        N232   1.354       .  A
N232        C233   1.352       .  A
C233        C397   1.454       .  S
C233        N234   1.354       .  A
Zn235       O240   2.082       .  S
Zn235       O244   2.034       .  S
Zn235      O1427   2.013   1_455  S
Zn235      O2003   1.981   1_445  S
Zn236       O247   2.071       .  S
Zn236      O1417   2.025       .  S
Zn236      O1419   2.002       .  S
Zn236       O239   1.972       .  S
Zn237       O245   2.051       .  S
Zn237       O248   2.035       .  S
Zn237      O2006   2.041       .  S
Zn237       O239   1.956       .  S
Zn238       O246   2.018       .  S
Zn238       O249   2.004       .  S
Zn238       O838   2.079       .  S
Zn238       O239   1.977       .  S
O239      Zn1999   1.978       .  S
O240        C252   1.278       .  A
O241      Zn1412   2.028   1_455  S
O241        C253   1.270       .  A
O242      Zn2001   2.048   1_445  S
O242        C254   1.279       .  A
O243      Zn1412   1.999   1_455  S
O243        C840   1.277       .  A
O244        C254   1.271       .  A
O245       C1429   1.278       .  A
O246        C255   1.270       .  A
O247        C256   1.277       .  A
O248        C255   1.277       .  A
O249        C256   1.277       .  A
O250       Zn826   2.081   1_545  S
O250        C257   1.277       .  A
O251      Zn1411   2.006       .  S
O251        C257   1.278       .  A
C252        O831   1.279   1_545  A
C253       O1421   1.279   1_455  A
C258        C259   1.409       .  A
C258        C263   1.428       .  A
C258        C311   1.490       .  S
C259        C260   1.401       .  A
C259        H264   1.081       .  S
C260        C849   1.391       .  A
C260        C366   1.491       .  S
C261        C262   1.401       .  A
C261        C848   1.389   1_545  A
C261        H265   1.084       .  S
C262        C851   1.424       .  A
C262        C331   1.495       .  S
C263        C850   1.420       .  A
C263        H266   1.083       .  S
C267        C268   1.423       .  A
C267        C272   1.408       .  A
C267        C312   1.486       .  S
C268        C269   1.415       .  A
C268        H273   1.081       .  S
C269        C270   1.395       .  A
C269        C333   1.482       .  S
C270        C271   1.391       .  A
C270        H274   1.082       .  S
C271        C272   1.400       .  A
C271        C355   1.481       .  S
C272        H275   1.079       .  S
C276        C277   1.402       .  A
C276       C1457   1.429   1_455  A
C276        C313   1.492       .  S
C277       C1454   1.392   1_455  A
C277        H282   1.079       .  S
C278        C279   1.387       .  A
C278       C1453   1.398       .  A
C278        C341   1.472       .  S
C279        C280   1.395       .  A
C279        H283   1.085       .  S
C280        C281   1.424       .  A
C280        C332   1.491       .  S
C281       C1452   1.431       .  A
C281        H284   1.082       .  S
C285        C369   1.483       .  S
C285        N286   1.356       .  A
C285        N878   1.360       .  A
N286        C287   1.356       .  A
C287        C338   1.470       .  S
C287       N2052   1.356       .  A
N288        C289   1.359       .  A
N288       C2051   1.357   1_445  A
C289        C352   1.478       .  S
C289       N1466   1.356   1_455  A
N290        C873   1.358       .  A
N290       C1465   1.356       .  A
Zn291       O296   2.040       .  S
Zn291       O300   2.093       .  S
Zn291       O307   2.056       .  S
Zn291       O295   1.986       .  S
Zn292       O297   2.032       .  S
Zn292       O299   2.069       .  S
Zn292       O303   2.031       .  S
Zn292       O295   1.983       .  S
Zn293       O298   2.019       .  S
Zn293       O301   2.073       .  S
Zn293       O304   2.040       .  S
Zn293       O295   1.977       .  S
Zn294       O302   2.076       .  S
Zn294       O305   2.062       .  S
Zn294       O306   2.060       .  S
Zn294       O295   1.968       .  S
O296        C308   1.282       .  A
O297        C309   1.280       .  A
O298        C310   1.280       .  A
O299        C308   1.279       .  A
O300        C310   1.281       .  A
O301        C309   1.278       .  A
O302        C311   1.280       .  A
O303        C312   1.271       .  A
O304        C311   1.272       .  A
O305        C312   1.277       .  A
O306        C313   1.279       .  A
O307        C313   1.273       .  A
Zn314       O319   2.091       .  S
Zn314       O323   2.031       .  S
Zn314       O330   2.005       .  S
Zn314       O318   1.929       .  S
Zn315       O320   2.082       .  S
Zn315       O322   2.018       .  S
Zn315       O326   2.016       .  S
Zn315       O318   1.922       .  S
Zn316       O321   2.063       .  S
Zn316       O324   2.024       .  S
Zn316       O327   2.015       .  S
Zn316       O318   1.928       .  S
Zn317       O325   2.079       .  S
Zn317       O328   2.081       .  S
Zn317       O329   2.086       .  S
Zn317       O318   1.946       .  S
O319        C331   1.278       .  A
O320        C332   1.277       .  A
O321        C333   1.277       .  A
O322        C331   1.277       .  A
O323        C333   1.277       .  A
O324        C332   1.278       .  A
O325        C334   1.284       .  A
O326        C335   1.272       .  A
O327        C334   1.267       .  A
O328        C335   1.285       .  A
O329        C336   1.284       .  A
O330        C336   1.269       .  A
C337        C342   1.402       .  A
C337       C1514   1.403   1_455  A
C337        H344   1.081       .  S
C338        C339   1.408       .  A
C338       C1513   1.402       .  A
C339        C340   1.395       .  A
C339        N346   1.433       .  S
C340        C341   1.402       .  A
C340        H345   1.085       .  S
C341       C1518   1.410       .  A
C342       C1517   1.410   1_455  A
C342        N343   1.432       .  S
N343        H347   1.046       .  S
N343        H348   1.046   1_455  S
N346        H349   1.046       .  S
N346        H350   1.045       .  S
C351        C352   1.405       .  A
C351        C356   1.404       .  A
C351        H358   1.078       .  S
C352        C353   1.408       .  A
C353        C354   1.396       .  A
C353        N360   1.433       .  S
C354        C355   1.404       .  A
C354        H359   1.085       .  S
C355        C356   1.411       .  A
C356        N357   1.432       .  S
N357        H361   1.043       .  S
N357        H362   1.045       .  S
N360        H363   1.045       .  S
N360        H364   1.046       .  S
C365        C370   1.396       .  A
C365        C954   1.402   1_545  A
C365        H372   1.085       .  S
C366        C367   1.418       .  A
C366        C953   1.408       .  A
C367        C368   1.407       .  A
C367        N374   1.438       .  S
C368        C369   1.407       .  A
C368        H373   1.081       .  S
C369        C958   1.408       .  A
C370        C957   1.409       .  A
C370        N371   1.433       .  S
N371        H375   1.045       .  S
N371        H376   1.046       .  S
N374        H377   1.042       .  S
N374        H378   1.045       .  S
C379        C380   1.399       .  A
C379        C384   1.393       .  A
C379        H974   1.084       .  S
C380        C381   1.412       .  A
C380        C812   1.462       .  S
C381        C382   1.394       .  A
C381        N388   1.433       .  S
C382        C383   1.398       .  A
C382        H387   1.080       .  S
C383        C384   1.407       .  A
C384        N385   1.433       .  S
N385        H389   1.046       .  S
N385        H390   1.046       .  S
H386        C967   1.084       .  S
N388        H391   1.045       .  S
N388        H392   1.044       .  S
C393        C394   1.400       .  A
C393        C398   1.396       .  A
C393       H1576   1.085   1_455  S
C394        C395   1.401       .  A
C394       C1391   1.455   1_455  S
C395        C396   1.395       .  A
C395        N402   1.438       .  S
C396        C397   1.402       .  A
C396        H401   1.085       .  S
C397        C398   1.413       .  A
C398        N399   1.437       .  S
N399        H403   1.045       .  S
N399        H404   1.042       .  S
H400       C1569   1.085       .  S
N402        H406   1.046       .  S
N402       H1581   1.045   1_455  S
H405       N1578   1.045       .  S
C407        C408   1.402       .  A
C407        C412   1.396       .  A
C407        H414   1.084       .  S
C408        C409   1.413       .  A
C409        C410   1.393       .  A
C409        N416   1.437       .  S
C410        C411   1.400       .  A
C410        H415   1.085       .  S
C411        C412   1.405       .  A
C412        N413   1.439       .  S
N413        H417   1.044       .  S
N413        H418   1.046       .  S
N416        H419   1.040       .  S
N416        H420   1.046       .  S
C421        C422   1.401       .  A
C421        C426   1.397       .  A
C421        H428   1.079       .  S
C422        C423   1.410       .  A
C423        C424   1.401       .  A
C423        N430   1.439       .  S
C424        C425   1.402       .  A
C424       H1017   1.084       .  S
C425        C426   1.412       .  A
C425        C756   1.474   1_545  S
C426        N427   1.433       .  S
N427        H431   1.045       .  S
N427        H432   1.043   1_545  S
H429       C1012   1.084       .  S
N430        H433   1.046       .  S
N430        H434   1.046       .  S
C435        C436   1.400       .  A
C435        C440   1.397       .  A
C435        H442   1.079       .  S
C436        C437   1.410       .  A
C437        C438   1.405       .  A
C437        N444   1.438       .  S
C438        C439   1.405       .  A
C438        H443   1.084       .  S
C439        C440   1.414       .  A
C440        N441   1.434       .  S
N441        H445   1.045       .  S
N441        H446   1.043       .  S
N444        H447   1.046       .  S
N444        H448   1.046       .  S
C449        C450   1.404       .  A
C449        C454   1.402       .  A
C449        H456   1.084       .  S
C450        C451   1.414       .  A
C451        C452   1.397       .  A
C451        N458   1.434       .  S
C452        C453   1.401       .  A
C452        H457   1.079       .  S
C453        C454   1.410       .  A
C454        N455   1.438       .  S
N455        H459   1.045       .  S
N455        H460   1.046       .  S
N458        H461   1.045       .  S
N458        H462   1.042       .  S
C463        C464   1.397       .  A
C463        C468   1.397       .  A
C463        H470   1.082       .  S
C464       C1641   1.411       .  A
C465        C466   1.404       .  A
C465       C1640   1.411       .  A
C465        N472   1.438       .  S
C466       C1643   1.404       .  A
C466        H471   1.083       .  S
C467        C468   1.409       .  A
C467       C1642   1.403       .  A
C468        N469   1.432       .  S
N469        H473   1.046       .  S
N469        H474   1.045       .  S
N472        H475   1.045       .  S
N472        H476   1.045       .  S
C477        C482   1.402       .  A
C477       C1066   1.402       .  A
C477        H484   1.084       .  S
C478        C479   1.411       .  A
C478       C1065   1.404       .  A
C479        C480   1.399       .  A
C479        N486   1.437       .  S
C480        C481   1.398       .  A
C480        H485   1.083       .  S
C481       C1070   1.411       .  A
C482       C1069   1.411       .  A
C482        N483   1.439       .  S
N483        H487   1.046       .  S
N483        H488   1.046       .  S
N486        H489   1.045       .  S
N486        H490   1.045       .  S
C491        C492   1.401       .  A
C491        C496   1.399       .  A
C491        H498   1.084       .  S
C492        C493   1.417       .  A
C493        C494   1.397       .  A
C493        N500   1.433       .  S
C494        C495   1.398       .  A
C494        H499   1.083       .  S
C495        C496   1.407       .  A
C496        N497   1.433       .  S
N497        H501   1.045       .  S
N497        H502   1.046       .  S
N500        H503   1.041       .  S
N500        H504   1.047       .  S
C505        C506   1.399       .  A
C505        C510   1.390       .  A
C505        H512   1.084       .  S
C506        C507   1.418       .  A
C507        C508   1.400       .  A
C507        N514   1.431       .  S
C508        C509   1.399       .  A
C508       H1689   1.084       .  S
C509        C510   1.410       .  A
C509       C1238   1.471   1_455  S
C510        N511   1.434   1_455  S
N511        H515   1.045   1_655  S
N511       H1692   1.046       .  S
H513       C1684   1.084       .  S
N514        H517   1.045       .  S
N514        H518   1.044       .  S
H516       N1687   1.046       .  S
C519        C520   1.401       .  A
C519        C524   1.405       .  A
C519        H526   1.084       .  S
C520        C521   1.410       .  A
C521        C522   1.391       .  A
C521        N528   1.434       .  S
C522        C523   1.399       .  A
C522        H527   1.084       .  S
C523        C524   1.410       .  A
C524        N525   1.431       .  S
N525        H529   1.045       .  S
N525        H530   1.046       .  S
N528        H531   1.045       .  S
N528        H532   1.046       .  S
C533        C534   1.403       .  A
C533        C538   1.408       .  A
C533        H540   1.084       .  S
C534        C535   1.411       .  A
C534        C626   1.472       .  S
C535        C536   1.391       .  A
C535       N1130   1.440       .  S
C536        C537   1.399       .  A
C536        H541   1.084       .  S
C537        C538   1.410       .  A
C538        N539   1.437       .  S
N539        H543   1.046       .  S
N539        H544   1.046       .  S
N542       C1123   1.440       .  S
N542        H545   1.047       .  S
N542        H546   1.044       .  S
C547        C548   1.402       .  A
C547        C552   1.399       .  A
C547        H554   1.084       .  S
C548        C549   1.410       .  A
C548        C611   1.466       .  S
C549        C550   1.388       .  A
C549       N1144   1.434       .  S
C550        C551   1.400       .  A
C550        H555   1.084       .  S
C551        C552   1.411       .  A
C552        N553   1.427       .  S
N553        H557   1.045       .  S
N553        H558   1.042       .  S
N556       C1137   1.433       .  S
N556        H559   1.046       .  S
N556        H560   1.044       .  S
C561        C562   1.403       .  A
C561        C566   1.393       .  A
C561        H568   1.084       .  S
C562        C563   1.417       .  A
C563        C564   1.401       .  A
C563        N570   1.439       .  S
C564        C565   1.398       .  A
C564        H569   1.077       .  S
C565        C566   1.411       .  A
C566        N567   1.434       .  S
N567        H571   1.046       .  S
N567        H572   1.045       .  S
N570        H573   1.044       .  S
N570        H574   1.046       .  S
C575        C576   1.399       .  A
C575        C580   1.398       .  A
C575        H582   1.076       .  S
C576        C577   1.406       .  A
C577        C578   1.393       .  A
C577        N584   1.433       .  S
C578        C579   1.400       .  A
C578        H583   1.084       .  S
C579        C580   1.413       .  A
C580        N581   1.432       .  S
N581        H585   1.043       .  S
N581        H586   1.045       .  S
N584        H587   1.046       .  S
N584        H588   1.046       .  S
C589        C590   1.429       .  A
C589       C1770   1.399   1_455  A
C589        C677   1.483       .  S
C590        C591   1.424       .  A
C590        H595   1.083       .  S
C591        C592   1.399       .  A
C591        C896   1.492       .  S
C592       C1769   1.388   1_455  A
C592        H596   1.085       .  S
C593       C1768   1.389       .  A
C593        C594   1.389       .  A
C593       C1167   1.462       .  S
C594       C1765   1.399       .  A
C594        H597   1.085       .  S
C598        C599   1.401       .  A
C598        C603   1.424       .  A
C598        C676   1.481       .  S
C599        C600   1.392       .  A
C599        H604   1.085       .  S
C600        C601   1.395       .  A
C600       C1150   1.477       .  S
C601        C602   1.408       .  A
C601        H605   1.084       .  S
C602        C603   1.420       .  A
C602        C897   1.498       .  S
C603        H606   1.083       .  S
C607        C608   1.428       .  A
C607        C612   1.400   1_565  A
C607        C675   1.479       .  S
C608        C609   1.424       .  A
C608        H613   1.082       .  S
C609        C610   1.403       .  A
C609        C898   1.498       .  S
C610        C611   1.390   1_565  A
C610        H614   1.085       .  S
C611        C612   1.386       .  A
C616       C1164   1.459       .  S
C616        N617   1.356       .  A
C616        N621   1.350       .  A
N617        C618   1.358       .  A
C618       C1153   1.463       .  S
C618        N619   1.358       .  A
N619        C620   1.354       .  A
C620       C1139   1.461       .  S
C620        N621   1.353       .  A
C622        C623   1.429       .  A
C622        C627   1.412       .  A
C622        C672   1.497       .  S
C623        C624   1.422       .  A
C623        H628   1.082       .  S
C624        C625   1.394       .  A
C624        C733   1.485       .  S
C625        C626   1.384       .  A
C625        H629   1.085       .  S
C626        C627   1.392       .  A
C631        C632   1.424       .  A
C631        C636   1.410       .  A
C631        C674   1.488       .  S
C632        C633   1.417       .  A
C632        H637   1.083       .  S
C633        C634   1.397       .  A
C633        C730   1.480       .  S
C634        C635   1.384       .  A
C634        H638   1.085       .  S
C635        C636   1.390       .  A
C635       C1108   1.464       .  S
C636        H639   1.084       .  S
C640       C1094   1.464       .  S
C640        N641   1.356       .  A
C640        N645   1.352       .  A
N641        C642   1.352       .  A
C642       C1111   1.458       .  S
C642        N643   1.355       .  A
N643        C644   1.353       .  A
C644       C1125   1.464       .  S
C644        N645   1.357       .  A
C646        C647   1.425       .  A
C646        C651   1.411       .  A
C646        C673   1.490       .  S
C647        C648   1.418       .  A
C647        H652   1.083       .  S
C648        C649   1.393       .  A
C648        C731   1.477       .  S
C649        C650   1.382       .  A
C649        H653   1.084       .  S
C650        C651   1.391       .  A
C650       C2273   1.470       .  S
C651        H654   1.084       .  S
Zn655       O660   2.079       .  S
Zn655      O1840   2.007       .  S
Zn655      O1847   2.030   1_556  S
Zn656       O661   2.070       .  S
Zn656       O663   2.001       .  S
Zn656       O667   2.033   1_556  S
Zn656       O659   1.978   1_565  S
Zn657      O1841   2.000   1_455  S
Zn657       O668   2.030   1_556  S
Zn657      O1835   1.977   1_455  S
Zn658      O1842   2.047       .  S
Zn658       O669   2.045       .  S
Zn658       O659   1.954   1_564  S
O659      Zn1833   1.971   1_545  S
O660        C672   1.278       .  A
O661        C673   1.277       .  A
O662        C674   1.276       .  A
O664      Zn1831   2.004   1_455  S
O664        C674   1.275       .  A
O665      Zn1833   1.990       .  S
O665        C673   1.274       .  A
O666      Zn1834   2.051   1_455  S
O666        C675   1.279       .  A
O667        C676   1.272       .  A
O668        C675   1.272       .  A
O669        C676   1.278       .  A
O670       C1853   1.281       .  A
O671      Zn1831   2.031   1_454  S
O671        C677   1.272       .  A
C677       O1846   1.281       .  A
C678        C679   1.400       .  A
C678        C683   1.433       .  A
C678        C788   1.501       .  S
C679        C680   1.393       .  A
C679        H684   1.085       .  S
C680        C681   1.391       .  A
C680       C1080   1.473       .  S
C681        C682   1.401       .  A
C681        H685   1.085       .  S
C682        C683   1.439       .  A
C682        C729   1.501       .  S
C683        H686   1.082       .  S
C687        C688   1.399       .  A
C687        C784   1.511       .  S
C688        C689   1.393   1_565  A
C688        H693   1.086       .  S
C689       C1066   1.476       .  S
C690        C691   1.399       .  A
C690        H694   1.085       .  S
C691        C692   1.442       .  A
C691        C728   1.502       .  S
C692        H695   1.082       .  S
C696       C1873   1.433   1_455  A
C696        C701   1.402       .  A
C696        C785   1.505       .  S
C697       C1872   1.435       .  A
C697        C698   1.441       .  A
C697        H702   1.083       .  S
C698        C699   1.403       .  A
C698        C732   1.503       .  S
C699        C700   1.392       .  A
C699        H703   1.085       .  S
C700       C1877   1.395       .  A
C700       C1055   1.479       .  S
C701       C1876   1.395   1_455  A
C701        H704   1.085       .  S
C705       C1052   1.467       .  S
C705       N1886   1.358       .  A
N706        C707   1.355       .  A
C707       C1083   1.460       .  S
C707        N708   1.353       .  A
N708       C1885   1.355   1_565  A
C709       C1069   1.461       .  S
C709       N1884   1.355   1_445  A
N710       C1881   1.356   1_455  A
Zn711       O716   2.055       .  S
Zn711       O720   2.053       .  S
Zn711       O727   2.031       .  S
Zn711       O715   1.972       .  S
Zn712       O717   2.101       .  S
Zn712       O719   2.096       .  S
Zn712       O723   2.099       .  S
Zn712       O715   1.923       .  S
Zn713       O718   2.013       .  S
Zn713       O721   2.047       .  S
Zn713       O724   2.042       .  S
Zn713       O715   1.974       .  S
Zn714       O722   2.025       .  S
Zn714       O725   2.059       .  S
Zn714       O726   2.056       .  S
Zn714       O715   1.969       .  S
O716        C728   1.273       .  A
O717        C729   1.288       .  A
O718        C730   1.278       .  A
O719        C728   1.288       .  A
O720        C730   1.274       .  A
O721        C729   1.272       .  A
O722        C731   1.279       .  A
O723        C732   1.288       .  A
O724        C731   1.272       .  A
O725        C732   1.274       .  A
O726        C733   1.274       .  A
O727        C733   1.280       .  A
C734        C735   1.424       .  A
C734        C739   1.402       .  A
C734        C842   1.484       .  S
C735        C736   1.420       .  A
C735        H740   1.083       .  S
C736        C737   1.406       .  A
C736        C787   1.498       .  S
C737        C738   1.399       .  A
C737        H741   1.083       .  S
C738        C739   1.394       .  A
C738       C1038   1.482       .  S
C739        H742   1.085       .  S
C743       C1920   1.403   1_455  A
C743        C748   1.422       .  A
C743        C841   1.481       .  S
C744       C1919   1.401       .  A
C744        C745   1.393       .  A
C744        H749   1.085       .  S
C745       C1922   1.399       .  A
C745       C1027   1.479       .  S
C746       C1921   1.399   1_455  A
C746        C747   1.407       .  A
C746        H750   1.084       .  S
C747        C748   1.417       .  A
C747        C786   1.496       .  S
C748        H751   1.083       .  S
C752        C753   1.424       .  A
C752        C757   1.400       .  A
C752        C843   1.480       .  S
C753        C754   1.419       .  A
C753        H758   1.083       .  S
C754        C755   1.406       .  A
C754        C789   1.494       .  S
C755        C756   1.397       .  A
C755        H759   1.084       .  S
C756        C757   1.392       .  A
C761       C1010   1.470       .  S
C761        N762   1.358       .  A
C761        N766   1.355       .  A
N762        C763   1.357       .  A
C763       C1041   1.474       .  S
C763        N764   1.359       .  A
N764        C765   1.358       .  A
C765       C1024   1.468       .  S
C765        N766   1.356       .  A
Zn767       O772   2.001       .  S
Zn767       O776   2.078       .  S
Zn767       O783   2.031       .  S
Zn767       O771   1.965       .  S
Zn768       O773   2.175       .  S
Zn768       O775   2.177       .  S
Zn768       O779   2.163       .  S
Zn768       O771   2.035       .  S
Zn769       O774   2.024       .  S
Zn769       O777   1.979       .  S
Zn769       O780   2.076       .  S
Zn769       O771   1.965       .  S
Zn770       O778   2.032       .  S
Zn770       O781   1.982       .  S
Zn770       O782   2.063       .  S
Zn770       O771   1.961       .  S
O772        C784   1.271       .  A
O773        C785   1.289       .  A
O774        C786   1.278       .  A
O775        C784   1.290       .  A
O776        C786   1.279       .  A
O777        C785   1.269       .  A
O778        C787   1.278       .  A
O779        C788   1.289       .  A
O780        C787   1.277       .  A
O781        C788   1.270       .  A
O782        C789   1.277       .  A
O783        C789   1.279       .  A
C790        C791   1.406       .  A
C790        C795   1.426       .  A
C790        C844   1.499       .  S
C791        C792   1.391       .  A
C791        H796   1.084       .  S
C792        C793   1.383       .  A
C792        C999   1.462       .  S
C793        C794   1.393       .  A
C793        H797   1.087       .  S
C794        C795   1.426       .  A
C794        C922   1.473       .  S
C795        H798   1.083       .  S
C799        C800   1.429       .  A
C799        C804   1.407       .  A
C799        C845   1.500       .  S
C800        C801   1.427       .  A
C800        H805   1.082       .  S
C801        C802   1.390       .  A
C801        C923   1.468       .  S
C802        C803   1.374       .  A
C802        H806   1.088       .  S
C803        C804   1.384       .  A
C803       C2158   1.453       .  S
C804        H807   1.078       .  S
C808        C809   1.427       .  A
C808        C813   1.408       .  A
C808        C840   1.496       .  S
C809        C810   1.425       .  A
C809        H814   1.083       .  S
C810        C811   1.392       .  A
C810        C924   1.471       .  S
C811        C812   1.382       .  A
C811        H815   1.087       .  S
C812        C813   1.388       .  A
C817        C971   1.456       .  S
C817        N818   1.352       .  A
C817        N822   1.353       .  A
N818        C819   1.352       .  A
C819        C996   1.455       .  S
C819        N820   1.353       .  A
N820        C821   1.352       .  A
C821        C985   1.451       .  S
C821        N822   1.354       .  A
Zn823       O828   2.081       .  S
Zn823       O832   2.034       .  S
Zn823      O2015   2.024   1_455  S
Zn823      O1415   1.979   1_455  S
Zn824      O2005   2.027       .  S
Zn824      O2007   2.012       .  S
Zn824       O835   2.077       .  S
Zn824       O827   1.975       .  S
Zn825      O1418   2.047   1_565  S
Zn825       O833   2.052       .  S
Zn825       O836   2.047       .  S
Zn825       O827   1.959       .  S
Zn826       O834   2.021       .  S
Zn826       O837   2.008       .  S
Zn826       O827   1.983       .  S
O827      Zn1411   1.978   1_565  S
O828        C840   1.278       .  A
O829      Zn2000   2.031   1_455  S
O829        C841   1.272       .  A
O830      Zn1413   2.045   1_455  S
O830        C842   1.279       .  A
O831      Zn2000   2.019   1_455  S
O832        C842   1.273       .  A
O833       C2017   1.279       .  A
O834        C843   1.270       .  A
O835        C844   1.277       .  A
O836        C843   1.279       .  A
O837        C844   1.278       .  A
O838        C845   1.277       .  A
O839      Zn1999   2.008       .  S
O839        C845   1.278       .  A
C841       O2009   1.278   1_455  A
C846        C847   1.405       .  A
C846        C851   1.430   1_565  A
C846        C899   1.489       .  S
C847        C848   1.395       .  A
C847        H852   1.082       .  S
C848        C954   1.477       .  S
C849        C850   1.395       .  A
C849        H853   1.080       .  S
C850        C919   1.491       .  S
C851        H854   1.083       .  S
C855        C856   1.424       .  A
C855        C860   1.407       .  A
C855        C900   1.485       .  S
C856        C857   1.415       .  A
C856        H861   1.081       .  S
C857        C858   1.394       .  A
C857        C921   1.482       .  S
C858        C859   1.389       .  A
C858        H862   1.081       .  S
C859        C860   1.398       .  A
C859        C943   1.477       .  S
C860        H863   1.077       .  S
C864        C865   1.405       .  A
C864       C2045   1.431   1_455  A
C864        C901   1.494       .  S
C865       C2042   1.394   1_455  A
C865        H870   1.082       .  S
C866       C2041   1.393       .  A
C866        C867   1.388       .  A
C866        C929   1.469       .  S
C867        C868   1.398       .  A
C867        H871   1.085       .  S
C868        C869   1.423       .  A
C868        C920   1.493       .  S
C869       C2040   1.431       .  A
C869        H872   1.083       .  S
C873        C957   1.470       .  S
C873        N874   1.353   1_545  A
N874        C875   1.355       .  A
C875        C926   1.468       .  S
C875       N1464   1.357   1_565  A
N876       C1463   1.354   1_455  A
N876        C877   1.356       .  A
C877        C940   1.472       .  S
C877       N2054   1.356   1_455  A
N878       C2053   1.357       .  A
Zn879       O884   2.042       .  S
Zn879       O888   2.080       .  S
Zn879       O895   2.055       .  S
Zn879       O883   1.980       .  S
Zn880       O885   2.011       .  S
Zn880       O887   2.055       .  S
Zn880       O891   2.016       .  S
Zn880       O883   1.978       .  S
Zn881       O886   2.024       .  S
Zn881       O889   2.087       .  S
Zn881       O892   2.035       .  S
Zn881       O883   1.976       .  S
Zn882       O890   2.083       .  S
Zn882       O893   2.070       .  S
Zn882       O894   2.070       .  S
Zn882       O883   1.971       .  S
O884        C896   1.283       .  A
O885        C897   1.277       .  A
O886        C898   1.281       .  A
O887        C896   1.276       .  A
O888        C898   1.279       .  A
O889        C897   1.279       .  A
O890        C899   1.282       .  A
O891        C900   1.269       .  A
O892        C899   1.272       .  A
O893        C900   1.279       .  A
O894        C901   1.280       .  A
O895        C901   1.273       .  A
Zn902       O907   2.081       .  S
Zn902       O911   2.033       .  S
Zn902       O918   2.010       .  S
Zn902       O906   1.930       .  S
Zn903       O908   2.085       .  S
Zn903       O910   2.034       .  S
Zn903       O914   2.012       .  S
Zn903       O906   1.931       .  S
Zn904       O909   2.061       .  S
Zn904       O912   2.019       .  S
Zn904       O915   2.018       .  S
Zn904       O906   1.933       .  S
Zn905       O913   2.074       .  S
Zn905       O916   2.063       .  S
Zn905       O917   2.070       .  S
Zn905       O906   1.949       .  S
O907        C919   1.277       .  A
O908        C920   1.277       .  A
O909        C921   1.277       .  A
O910        C919   1.280       .  A
O911        C921   1.279       .  A
O912        C920   1.277       .  A
O913        C922   1.284       .  A
O914        C923   1.272       .  A
O915        C922   1.268       .  A
O916        C923   1.282       .  A
O917        C924   1.281       .  A
O918        C924   1.268       .  A
C925       C2102   1.403   1_455  A
C925        C930   1.402       .  A
C925        H932   1.080       .  S
C926       C2101   1.403       .  A
C926        C927   1.412       .  A
C927        C928   1.396       .  A
C927        N934   1.439       .  S
C928        C929   1.398       .  A
C928        H933   1.084       .  S
C929       C2106   1.410       .  A
C930       C2105   1.410   1_455  A
C930        N931   1.432       .  S
N931        H935   1.045       .  S
N931        H936   1.046       .  S
N934        H937   1.045       .  S
N934        H938   1.046       .  S
C939        C940   1.403       .  A
C939        C944   1.403       .  A
C939        H946   1.077       .  S
C940        C941   1.407       .  A
C941        C942   1.394       .  A
C941        N948   1.433       .  S
C942        C943   1.404       .  A
C942        H947   1.085       .  S
C943        C944   1.410       .  A
C944        N945   1.432       .  S
N945        H949   1.044       .  S
N945        H950   1.045       .  S
N948        H951   1.046       .  S
N948        H952   1.045       .  S
C953        C958   1.394       .  A
C953        H960   1.084       .  S
C954        C955   1.414       .  A
C955        C956   1.402       .  A
C955        N962   1.432       .  S
C956        C957   1.403   1_565  A
C956        H961   1.084       .  S
C958        N959   1.432       .  S
N959        H963   1.046       .  S
N959        H964   1.045       .  S
N962        H965   1.043       .  S
N962        H966   1.046       .  S
C967        C968   1.398       .  A
C967        C972   1.393       .  A
C968        C969   1.411       .  A
C969        C970   1.394       .  A
C969        N976   1.432       .  S
C970        C971   1.398       .  A
C970        H975   1.082       .  S
C971        C972   1.408       .  A
C972        N973   1.433       .  S
N973        H977   1.046       .  S
N973        H978   1.046       .  S
N976        H979   1.045       .  S
N976        H980   1.044       .  S
C981        C982   1.399       .  A
C981        C986   1.397       .  A
C981       H2164   1.084   1_455  S
C982        C983   1.398       .  A
C982       C1979   1.452   1_455  S
C983        C984   1.389       .  A
C983        N990   1.433       .  S
C984        C985   1.400       .  A
C984        H989   1.085       .  S
C985        C986   1.415       .  A
C986        N987   1.437       .  S
N987        H991   1.044       .  S
N987        H992   1.043       .  S
H988       C2157   1.084       .  S
N990       H2169   1.046       .  S
N990        H994   1.045       .  S
H993       N2166   1.045       .  S
C995        C996   1.402       .  A
C995       C1000   1.394       .  A
C995       H1002   1.084       .  S
C996        C997   1.413       .  A
C997        C998   1.393       .  A
C997       N1004   1.437       .  S
C998        C999   1.400       .  A
C998       H1003   1.085       .  S
C999       C1000   1.404       .  A
C1000      N1001   1.433       .  S
N1001      H1005   1.046       .  S
N1001      H1006   1.046       .  S
N1004      H1007   1.042       .  S
N1004      H1008   1.045       .  S
C1009      C1010   1.400       .  A
C1009      C1014   1.396       .  A
C1009      H1016   1.077       .  S
C1010      C1011   1.411       .  A
C1011      C1012   1.402       .  A
C1011      N1018   1.438       .  S
C1012      C1013   1.404       .  A
C1013      C1014   1.413       .  A
C1014      N1015   1.434       .  S
N1015      H1019   1.046       .  S
N1015      H1020   1.042       .  S
N1018      H1021   1.046       .  S
N1018      H1022   1.045       .  S
C1023      C1024   1.401       .  A
C1023      C1028   1.398       .  A
C1023      H1030   1.080       .  S
C1024      C1025   1.410       .  A
C1025      C1026   1.403       .  A
C1025      N1032   1.439       .  S
C1026      C1027   1.404       .  A
C1026      H1031   1.084       .  S
C1027      C1028   1.413       .  A
C1028      N1029   1.433       .  S
N1029      H1033   1.045       .  S
N1029      H1034   1.043       .  S
N1032      H1035   1.046       .  S
N1032      H1036   1.046       .  S
C1037      C1038   1.405       .  A
C1037      C1042   1.404       .  A
C1037      H1044   1.084       .  S
C1038      C1039   1.414       .  A
C1039      C1040   1.397       .  A
C1039      N1046   1.434       .  S
C1040      C1041   1.401       .  A
C1040      H1045   1.078       .  S
C1041      C1042   1.410       .  A
C1042      N1043   1.438       .  S
N1043      H1047   1.046       .  S
N1043      H1048   1.045       .  S
N1046      H1049   1.045       .  S
N1046      H1050   1.042       .  S
C1051      C1052   1.398       .  A
C1051      C1056   1.398       .  A
C1051      H1058   1.083       .  S
C1052      C2229   1.413       .  A
C1053      C2228   1.411       .  A
C1053      C1054   1.403       .  A
C1053      N1060   1.438       .  S
C1054      C2231   1.404       .  A
C1054      H1059   1.084       .  S
C1055      C2230   1.403       .  A
C1055      C1056   1.410       .  A
C1056      N1057   1.432       .  S
N1057      H1061   1.046       .  S
N1057      H1062   1.045       .  S
N1060      H1063   1.045       .  S
N1060      H1064   1.046       .  S
C1065      C1070   1.402       .  A
C1065      H1072   1.084       .  S
C1066      C1067   1.412       .  A
C1067      C1068   1.399       .  A
C1067      N1074   1.438   1_545  S
C1068      C1069   1.397       .  A
C1068      H1073   1.083   1_545  S
C1070      N1071   1.439       .  S
N1071      H1075   1.046       .  S
N1071      H1076   1.046       .  S
N1074      H1077   1.045   1_565  S
N1074      H1078   1.045       .  S
C1079      C1080   1.402       .  A
C1079      C1084   1.396       .  A
C1079      H1086   1.084       .  S
C1080      C1081   1.416       .  A
C1081      C1082   1.395       .  A
C1081      N1088   1.434       .  S
C1082      C1083   1.398       .  A
C1082      H1087   1.082       .  S
C1083      C1084   1.407       .  A
C1084      N1085   1.433       .  S
N1085      H1089   1.045       .  S
N1085      H1090   1.046       .  S
N1088      H1091   1.040       .  S
N1088      H1092   1.048       .  S
C1093      C1094   1.398       .  A
C1093      C1098   1.389       .  A
C1093      H1100   1.085       .  S
C1094      C1095   1.415       .  A
C1095      C1096   1.401       .  A
C1095      N1102   1.430       .  S
C1096      C1097   1.401       .  A
C1096      H2277   1.084       .  S
C1097      C1098   1.407       .  A
C1097      C1826   1.467   1_455  S
C1098      N1099   1.434       .  S
N1099      H1103   1.046       .  S
N1099      H2280   1.046   1_455  S
H1101      C2272   1.084       .  S
N1102      H1105   1.045       .  S
N1102      H1106   1.044       .  S
H1104      N2275   1.046       .  S
C1107      C1108   1.402       .  A
C1107      C1112   1.405       .  A
C1107      H1114   1.084       .  S
C1108      C1109   1.406       .  A
C1109      C1110   1.390       .  A
C1109      N1116   1.433       .  S
C1110      C1111   1.398       .  A
C1110      H1115   1.085       .  S
C1111      C1112   1.407       .  A
C1112      N1113   1.431       .  S
N1113      H1117   1.045       .  S
N1113      H1118   1.045       .  S
N1116      H1119   1.046       .  S
N1116      H1120   1.046       .  S
C1121      C1122   1.402       .  A
C1121      C1126   1.406       .  A
C1121      H1128   1.084       .  S
C1122      C1123   1.411       .  A
C1123      C1124   1.391       .  A
C1124      C1125   1.399       .  A
C1124      H1129   1.084       .  S
C1125      C1126   1.411       .  A
C1126      N1127   1.437       .  S
N1127      H1131   1.048       .  S
N1127      H1132   1.044       .  S
N1130      H1133   1.046       .  S
N1130      H1134   1.045       .  S
C1135      C1136   1.402       .  A
C1135      C1140   1.397       .  A
C1135      H1142   1.084       .  S
C1136      C1137   1.408       .  A
C1137      C1138   1.389       .  A
C1138      C1139   1.401       .  A
C1138      H1143   1.084       .  S
C1139      C1140   1.408       .  A
C1140      N1141   1.428       .  S
N1141      H1145   1.045       .  S
N1141      H1146   1.042       .  S
N1144      H1147   1.046       .  S
N1144      H1148   1.044       .  S
C1149      C1150   1.402       .  A
C1149      C1154   1.393       .  A
C1149      H1156   1.084       .  S
C1150      C1151   1.411       .  A
C1151      C1152   1.406       .  A
C1151      N1158   1.437       .  S
C1152      C1153   1.399       .  A
C1152      H1157   1.079       .  S
C1153      C1154   1.411       .  A
C1154      N1155   1.434       .  S
N1155      H1159   1.046       .  S
N1155      H1160   1.045       .  S
N1158      H1161   1.046       .  S
N1158      H1162   1.046       .  S
C1163      C1164   1.400       .  A
C1163      C1168   1.398       .  A
C1163      H1170   1.077       .  S
C1164      C1165   1.406       .  A
C1165      C1166   1.391       .  A
C1165      N1172   1.433       .  S
C1166      C1167   1.398       .  A
C1166      H1171   1.085       .  S
C1167      C1168   1.411       .  A
C1168      N1169   1.432       .  S
N1169      H1173   1.044       .  S
N1169      H1174   1.045       .  S
N1172      H1175   1.046       .  S
N1172      H1176   1.046       .  S
C1177      C1178   1.425       .  A
C1177      C1265   1.481       .  S
C1178      C1179   1.420       .  A
C1178      H1183   1.083       .  S
C1179      C1180   1.401       .  A
C1179      C1484   1.488       .  S
C1180      H1184   1.085       .  S
C1181      C1182   1.391       .  A
C1181      C1755   1.472       .  S
C1182      H1185   1.085       .  S
C1186      C1187   1.402       .  A
C1186      C1191   1.425       .  A
C1186      C1264   1.485       .  S
C1187      C1188   1.394       .  A
C1187      H1192   1.085       .  S
C1188      C1189   1.397       .  A
C1188      C1738   1.476       .  S
C1189      C1190   1.408       .  A
C1189      H1193   1.085       .  S
C1190      C1191   1.420       .  A
C1190      C1485   1.498       .  S
C1191      H1194   1.083       .  S
C1195      C1196   1.431       .  A
C1195      C1200   1.398       .  A
C1195      C1263   1.483       .  S
C1196      C1197   1.427       .  A
C1196      H1201   1.082       .  S
C1197      C1198   1.402       .  A
C1197      C1486   1.500       .  S
C1198      C1199   1.388       .  A
C1198      H1202   1.085       .  S
C1199      C1200   1.387       .  A
C1199      C2312   1.465       .  S
C1200      H1791   1.085       .  S
H1203      C1788   1.086       .  S
C1204      C1752   1.467       .  S
C1204      N1205   1.358       .  A
C1204      N1209   1.351       .  A
N1205      C1206   1.359       .  A
C1206      C1741   1.465       .  S
C1206      N1207   1.359       .  A
N1207      C1208   1.354       .  A
C1208      C1727   1.463       .  S
C1208      N1209   1.352       .  A
C1210      C1211   1.428       .  A
C1210      C1215   1.410       .  A
C1210      C1260   1.492       .  S
C1211      C1212   1.421       .  A
C1211      H1216   1.083       .  S
C1212      C1213   1.393       .  A
C1212      C1321   1.483       .  S
C1213      C1214   1.383       .  A
C1213      H1217   1.084       .  S
C1214      C1215   1.390       .  A
C1214      C2298   1.468   1_545  S
C1215      H1806   1.084   1_545  S
H1218      C1803   1.084       .  S
C1219      C1220   1.425       .  A
C1219      C1224   1.411       .  A
C1219      C1262   1.489       .  S
C1220      C1221   1.416       .  A
C1220      H1225   1.083       .  S
C1221      C1222   1.394       .  A
C1221      C1318   1.479       .  S
C1222      C1223   1.384       .  A
C1222      H1226   1.085       .  S
C1223      C1224   1.392       .  A
C1223      C1696   1.469       .  S
C1224      H1227   1.084       .  S
C1228      C1682   1.467       .  S
C1228      N1229   1.358       .  A
C1228      N1233   1.351       .  A
N1229      C1230   1.355       .  A
C1230      C1699   1.463       .  S
C1230      N1231   1.356       .  A
N1231      C1232   1.351       .  A
C1232      C1713   1.465       .  S
C1232      N1233   1.355       .  A
C1234      C1235   1.426       .  A
C1234      C1239   1.414       .  A
C1234      C1261   1.492       .  S
C1235      C1236   1.417       .  A
C1235      H1240   1.083       .  S
C1236      C1237   1.392       .  A
C1236      C1319   1.477       .  S
C1237      C1238   1.381       .  A
C1237      H1241   1.085       .  S
C1238      C1239   1.392       .  A
C1239      H1242   1.084   1_655  S
Zn1243     O1248   2.069       .  S
Zn1243     O1835   1.984   1_545  S
Zn1244     O1249   2.074       .  S
Zn1244     O1251   2.013       .  S
Zn1244     O1255   2.034   1_556  S
Zn1244     O1247   1.977       .  S
Zn1245     O1838   2.051       .  S
Zn1245     O1256   2.025   1_556  S
Zn1246     O1257   2.061       .  S
Zn1246     O1846   2.062   1_655  S
Zn1246     O1247   1.959   1_554  S
O1247     Zn1831   1.984       .  S
O1248      C1260   1.277       .  A
O1249      C1261   1.278       .  A
O1250     Zn1833   2.060   1_545  S
O1250      C1262   1.276       .  A
O1251      C1848   1.277       .  A
O1252      C1262   1.277       .  A
O1253      C1261   1.275       .  A
O1254      C1263   1.281       .  A
O1255      C1264   1.273       .  A
O1256      C1263   1.270       .  A
O1257      C1264   1.281       .  A
O1258     Zn1834   2.052   1_445  S
O1259      C1265   1.273       .  A
C1260      O1839   1.277   1_545  A
C1266      C1267   1.401       .  A
C1266      C1271   1.435       .  A
C1266      C1376   1.508       .  S
C1267      C1268   1.394       .  A
C1267      H1272   1.085       .  S
C1268      C1269   1.391       .  A
C1268      C1668   1.475       .  S
C1269      C1270   1.402       .  A
C1269      H1273   1.085       .  S
C1270      C1271   1.441       .  A
C1270      C1317   1.505       .  S
C1271      H1274   1.082       .  S
C1275      C1276   1.402       .  A
C1275      C1868   1.435       .  A
C1275      C1372   1.508       .  S
C1276      C1277   1.395       .  A
C1276      H1281   1.085       .  S
C1277      C1866   1.391       .  A
C1277      C1654   1.479       .  S
C1278      C1865   1.390       .  A
C1278      C1279   1.400       .  A
C1278      H1282   1.085       .  S
C1279      C1280   1.441   1_545  A
C1279      C1316   1.501       .  S
C1280      C1863   1.436       .  A
C1280      H1283   1.082       .  S
C1284      C1289   1.401       .  A
C1284      C1373   1.504       .  S
C1285      C1286   1.439       .  A
C1285      H1290   1.083       .  S
C1286      C1287   1.402       .  A
C1286      C1320   1.502       .  S
C1287      C1288   1.393       .  A
C1287      H1291   1.085       .  S
C1288      C1643   1.481       .  S
C1289      H1292   1.085       .  S
C1293      C1640   1.467       .  S
C1293      N1882   1.357   1_545  A
N1294      C1881   1.355       .  A
N1294      C1295   1.357       .  A
C1295      C1671   1.461       .  S
C1295      N1296   1.354       .  A
C1297      C1657   1.467       .  S
C1297      N1886   1.356       .  A
N1298      C1885   1.354       .  A
Zn1299     O1304   2.053       .  S
Zn1299     O1308   2.047       .  S
Zn1299     O1315   2.029       .  S
Zn1299     O1303   1.972       .  S
Zn1300     O1305   2.097       .  S
Zn1300     O1307   2.100       .  S
Zn1300     O1311   2.095       .  S
Zn1300     O1303   1.923       .  S
Zn1301     O1306   2.020       .  S
Zn1301     O1309   2.057       .  S
Zn1301     O1312   2.040       .  S
Zn1301     O1303   1.977       .  S
Zn1302     O1310   2.028       .  S
Zn1302     O1313   2.059       .  S
Zn1302     O1314   2.058       .  S
Zn1302     O1303   1.970       .  S
O1304      C1316   1.273       .  A
O1305      C1317   1.288       .  A
O1306      C1318   1.279       .  A
O1307      C1316   1.288       .  A
O1308      C1318   1.273       .  A
O1309      C1317   1.273       .  A
O1310      C1319   1.280       .  A
O1311      C1320   1.287       .  A
O1312      C1319   1.272       .  A
O1313      C1320   1.274       .  A
O1314      C1321   1.274       .  A
O1315      C1321   1.279       .  A
C1322      C1323   1.423       .  A
C1322      C1327   1.400       .  A
C1322      C1430   1.482       .  S
C1323      C1324   1.418       .  A
C1323      H1328   1.083       .  S
C1324      C1325   1.406       .  A
C1324      C1375   1.497       .  S
C1325      C1326   1.400       .  A
C1325      H1329   1.083       .  S
C1326      C1327   1.395       .  A
C1326      C1626   1.481       .  S
C1327      H1330   1.085       .  S
C1331      C1336   1.423       .  A
C1331      C1429   1.482       .  S
C1332      C1333   1.394       .  A
C1332      H1337   1.085       .  S
C1333      C1615   1.478       .  S
C1334      C1335   1.406       .  A
C1334      H1338   1.084       .  S
C1335      C1336   1.417       .  A
C1335      C1374   1.497       .  S
C1336      H1339   1.082       .  S
C1340      C1341   1.422       .  A
C1340      C1345   1.400       .  A
C1340      C1431   1.477       .  S
C1341      C1342   1.417       .  A
C1341      H1346   1.083       .  S
C1342      C1343   1.405       .  A
C1342      C1377   1.494       .  S
C1343      C1344   1.398       .  A
C1343      H1347   1.084       .  S
C1344      C1345   1.392       .  A
C1344      C2189   1.477       .  S
C1345      H1936   1.085       .  S
H1348      C1933   1.085   1_545  S
C1349      C1598   1.464       .  S
C1349      N1350   1.356       .  A
C1349      N1354   1.354       .  A
N1350      C1351   1.356       .  A
C1351      C1629   1.473       .  S
C1351      N1352   1.361       .  A
N1352      C1353   1.359       .  A
C1353      C1612   1.468       .  S
C1353      N1354   1.355       .  A
Zn1355     O1360   1.987       .  S
Zn1355     O1364   2.073       .  S
Zn1355     O1371   2.025       .  S
Zn1355     O1359   1.961       .  S
Zn1356     O1361   2.170       .  S
Zn1356     O1363   2.178       .  S
Zn1356     O1367   2.179       .  S
Zn1356     O1359   2.034       .  S
Zn1357     O1362   2.029       .  S
Zn1357     O1365   1.982       .  S
Zn1357     O1368   2.073       .  S
Zn1357     O1359   1.965       .  S
Zn1358     O1366   2.030       .  S
Zn1358     O1369   1.979       .  S
Zn1358     O1370   2.064       .  S
Zn1358     O1359   1.963       .  S
O1360      C1372   1.270       .  A
O1361      C1373   1.289       .  A
O1362      C1374   1.278       .  A
O1363      C1372   1.290       .  A
O1364      C1374   1.277       .  A
O1365      C1373   1.269       .  A
O1366      C1375   1.278       .  A
O1367      C1376   1.289       .  A
O1368      C1375   1.277       .  A
O1369      C1376   1.269       .  A
O1370      C1377   1.277       .  A
O1371      C1377   1.278       .  A
C1378      C1379   1.404       .  A
C1378      C1383   1.424       .  A
C1378      C1432   1.493       .  S
C1379      C1380   1.387       .  A
C1379      H1384   1.084       .  S
C1380      C1381   1.384       .  A
C1380      C1587   1.459       .  S
C1381      C1382   1.393       .  A
C1381      H1385   1.087       .  S
C1382      C1383   1.424       .  A
C1382      C1510   1.471       .  S
C1383      H1386   1.083       .  S
C1387      C1388   1.429       .  A
C1387      C1392   1.407       .  A
C1387      C1433   1.502       .  S
C1388      C1389   1.428       .  A
C1388      H1393   1.082       .  S
C1389      C1390   1.392       .  A
C1389      C1511   1.471       .  S
C1390      C1391   1.377       .  A
C1390      H1394   1.087       .  S
C1391      C1392   1.385       .  A
C1392      H1395   1.078   1_655  S
C1396      C1397   1.429       .  A
C1396      C1401   1.407       .  A
C1396      C1428   1.499       .  S
C1397      C1398   1.426       .  A
C1397      H1402   1.083       .  S
C1398      C1399   1.390       .  A
C1398      C1512   1.471       .  S
C1399      C1400   1.378       .  A
C1399      H1403   1.088       .  S
C1400      C1401   1.387       .  A
C1400      C2144   1.457   1_545  S
C1401      H1992   1.081   1_545  S
H1404      C1989   1.078       .  S
C1405      C1559   1.450       .  S
C1405      N1406   1.352       .  A
C1405      N1410   1.352       .  A
N1406      C1407   1.351       .  A
C1407      C1584   1.455       .  S
C1407      N1408   1.354       .  A
N1408      C1409   1.351       .  A
C1409      C1573   1.449       .  S
C1409      N1410   1.352       .  A
Zn1411     O1416   2.080       .  S
Zn1411     O1420   2.027       .  S
Zn1412     O1423   2.071       .  S
Zn1412     O1415   1.975       .  S
Zn1413     O1421   2.054       .  S
Zn1413     O1424   2.037       .  S
Zn1413     O1415   1.957       .  S
Zn1414     O1422   2.020       .  S
Zn1414     O1425   1.998       .  S
Zn1414     O2014   2.078       .  S
Zn1414     O1415   1.981       .  S
O1416      C1428   1.278       .  A
O1417      C1429   1.271       .  A
O1418      C1430   1.279       .  A
O1419      C2016   1.277       .  A
O1420      C1430   1.272       .  A
O1422      C1431   1.271       .  A
O1423      C1432   1.276       .  A
O1424      C1431   1.278       .  A
O1425      C1432   1.276       .  A
O1426     Zn2002   2.086   1_545  S
O1426      C1433   1.278       .  A
O1427      C1433   1.279       .  A
C1428      O2007   1.278   1_545  A
C1434      C1435   1.406       .  A
C1434      C1439   1.428       .  A
C1434      C1487   1.490       .  S
C1435      C1436   1.398       .  A
C1435      H1440   1.081       .  S
C1436      C2025   1.391       .  A
C1436      C1542   1.483       .  S
C1437      C2024   1.391   1_545  A
C1437      C1438   1.399       .  A
C1437      H1441   1.083       .  S
C1438      C2027   1.423       .  A
C1438      C1507   1.497       .  S
C1439      C2026   1.422       .  A
C1439      H1442   1.083       .  S
C1443      C1444   1.426       .  A
C1443      C1448   1.408       .  A
C1443      C1488   1.490       .  S
C1444      C1445   1.417       .  A
C1444      H1449   1.082       .  S
C1445      C1446   1.395       .  A
C1445      C1509   1.485       .  S
C1446      C1447   1.390       .  A
C1446      H1450   1.082       .  S
C1447      C1448   1.401       .  A
C1447      C1531   1.480       .  S
C1448      H1451   1.079       .  S
C1452      C1453   1.409       .  A
C1452      C1489   1.496       .  S
C1453      H1458   1.083       .  S
C1454      C1455   1.389       .  A
C1454      C1517   1.467       .  S
C1455      C1456   1.399       .  A
C1455      H1459   1.084       .  S
C1456      C1457   1.424       .  A
C1456      C1508   1.492       .  S
C1457      H1460   1.081       .  S
C1461      C1545   1.475       .  S
C1461      N1462   1.357       .  A
C1461      N2054   1.358       .  A
N1462      C1463   1.358       .  A
C1463      C1514   1.465       .  S
N1464      C1465   1.359       .  A
C1465      C1528   1.476       .  S
N1466      C2049   1.358       .  A
Zn1467     O1472   2.030       .  S
Zn1467     O1476   2.079       .  S
Zn1467     O1483   2.057       .  S
Zn1467     O1471   1.979       .  S
Zn1468     O1473   2.024       .  S
Zn1468     O1475   2.058       .  S
Zn1468     O1479   2.021       .  S
Zn1468     O1471   1.983       .  S
Zn1469     O1474   2.034       .  S
Zn1469     O1477   2.082       .  S
Zn1469     O1480   2.038       .  S
Zn1469     O1471   1.970       .  S
Zn1470     O1478   2.082       .  S
Zn1470     O1481   2.078       .  S
Zn1470     O1482   2.074       .  S
Zn1470     O1471   1.961       .  S
O1472      C1484   1.282       .  A
O1473      C1485   1.278       .  A
O1474      C1486   1.282       .  A
O1475      C1484   1.278       .  A
O1476      C1486   1.279       .  A
O1477      C1485   1.278       .  A
O1478      C1487   1.282       .  A
O1479      C1488   1.268       .  A
O1480      C1487   1.273       .  A
O1481      C1488   1.279       .  A
O1482      C1489   1.280       .  A
O1483      C1489   1.274       .  A
Zn1490     O1495   2.094       .  S
Zn1490     O1499   2.037       .  S
Zn1490     O1506   2.010       .  S
Zn1490     O1494   1.928       .  S
Zn1491     O1496   2.087       .  S
Zn1491     O1498   2.022       .  S
Zn1491     O1502   2.019       .  S
Zn1491     O1494   1.919       .  S
Zn1492     O1497   2.072       .  S
Zn1492     O1500   2.023       .  S
Zn1492     O1503   2.009       .  S
Zn1492     O1494   1.927       .  S
Zn1493     O1501   2.077       .  S
Zn1493     O1504   2.080       .  S
Zn1493     O1505   2.072       .  S
Zn1493     O1494   1.947       .  S
O1495      C1507   1.277       .  A
O1496      C1508   1.279       .  A
O1497      C1509   1.278       .  A
O1498      C1507   1.278       .  A
O1499      C1509   1.279       .  A
O1500      C1508   1.278       .  A
O1501      C1510   1.283       .  A
O1502      C1511   1.270       .  A
O1503      C1510   1.265       .  A
O1504      C1511   1.285       .  A
O1505      C1512   1.283       .  A
O1506      C1512   1.271       .  A
C1513      C1518   1.402       .  A
C1513      H1520   1.078       .  S
C1514      C1515   1.407       .  A
C1515      C1516   1.395       .  A
C1515      N1522   1.433       .  S
C1516      C1517   1.398       .  A
C1516      H1521   1.084       .  S
C1518      N1519   1.432       .  S
N1519      H1523   1.044       .  S
N1519      H1524   1.046       .  S
N1522      H1525   1.046       .  S
N1522      H1526   1.046       .  S
C1527      C1528   1.404       .  A
C1527      C1532   1.403       .  A
C1527      H1534   1.078       .  S
C1528      C1529   1.408       .  A
C1529      C1530   1.397       .  A
C1529      N1536   1.433       .  S
C1530      C1531   1.405       .  A
C1530      H1535   1.085       .  S
C1531      C1532   1.410       .  A
C1532      N1533   1.432       .  S
N1533      H1537   1.043       .  S
N1533      H1538   1.046       .  S
N1536      H1539   1.045       .  S
N1536      H1540   1.046       .  S
C1541      C2130   1.404   1_545  A
C1541      C1546   1.394       .  A
C1541      H1548   1.084       .  S
C1542      C2129   1.403       .  A
C1542      C1543   1.414       .  A
C1543      C1544   1.411       .  A
C1543      N1550   1.438       .  S
C1544      C1545   1.404       .  A
C1544      H1549   1.083       .  S
C1545      C2134   1.408       .  A
C1546      C2133   1.410       .  A
C1546      N1547   1.434       .  S
N1547      H1551   1.046       .  S
N1547      H1552   1.046       .  S
N1550      H1553   1.046       .  S
N1550      H1554   1.042       .  S
C1555      C1556   1.394       .  A
C1555      C1560   1.394       .  A
C1555      H2150   1.084       .  S
C1556      C1557   1.411       .  A
C1556      C1988   1.455       .  S
C1557      C1558   1.394       .  A
C1557      N1564   1.432       .  S
C1558      C1559   1.398       .  A
C1558      H1563   1.084       .  S
C1559      C1560   1.411       .  A
C1560      N1561   1.439       .  S
N1561      H1565   1.046       .  S
N1561      H1566   1.045       .  S
H1562      C2143   1.084       .  S
N1564      H1567   1.045       .  S
N1564      H1568   1.045       .  S
C1569      C1570   1.401       .  A
C1569      C1574   1.396       .  A
C1570      C1571   1.401       .  A
C1571      C1572   1.393       .  A
C1571      N1578   1.438       .  S
C1572      C1573   1.401       .  A
C1572      H1577   1.085       .  S
C1573      C1574   1.411       .  A
C1574      N1575   1.437       .  S
N1575      H1579   1.045       .  S
N1575      H1580   1.043       .  S
N1578      H1582   1.046       .  S
C1583      C1584   1.401       .  A
C1583      C1588   1.390       .  A
C1583      H1590   1.085       .  S
C1584      C1585   1.412       .  A
C1585      C1586   1.393       .  A
C1585      N1592   1.437       .  S
C1586      C1587   1.401       .  A
C1586      H1591   1.085       .  S
C1587      C1588   1.412       .  A
C1588      N1589   1.440       .  S
N1589      H1593   1.046       .  S
N1589      H1594   1.042       .  S
N1592      H1595   1.041       .  S
N1592      H1596   1.046       .  S
C1597      C1598   1.400       .  A
C1597      C1602   1.397       .  A
C1597      H1604   1.080       .  S
C1598      C1599   1.409       .  A
C1599      C1600   1.400       .  A
C1599      N1606   1.439       .  S
C1600      C1601   1.402       .  A
C1600      H2193   1.084       .  S
C1601      C1602   1.412       .  A
C1601      C1932   1.473   1_545  S
C1602      N1603   1.433       .  S
N1603      H1607   1.044       .  S
N1603      H1608   1.043   1_545  S
H1605      C2188   1.084       .  S
N1606      H1609   1.046       .  S
N1606      H1610   1.045       .  S
C1611      C1612   1.401       .  A
C1611      C1616   1.397       .  A
C1611      H1618   1.080       .  S
C1612      C1613   1.409       .  A
C1613      C1614   1.404       .  A
C1613      N1620   1.438       .  S
C1614      C1615   1.404       .  A
C1614      H1619   1.084       .  S
C1615      C1616   1.414       .  A
C1616      N1617   1.433       .  S
N1617      H1621   1.044       .  S
N1617      H1622   1.044       .  S
N1620      H1623   1.046       .  S
N1620      H1624   1.045       .  S
C1625      C1626   1.405       .  A
C1625      C1630   1.402       .  A
C1625      H1632   1.084       .  S
C1626      C1627   1.413       .  A
C1627      C1628   1.398       .  A
C1627      N1634   1.434       .  S
C1628      C1629   1.401       .  A
C1628      H1633   1.076       .  S
C1629      C1630   1.409       .  A
C1630      N1631   1.438       .  S
N1631      H1635   1.045       .  S
N1631      H1636   1.046       .  S
N1634      H1637   1.045       .  S
N1634      H1638   1.042       .  S
C1639      C1640   1.399       .  A
C1639      C1644   1.399       .  A
C1639      H1646   1.082       .  S
C1641      C1642   1.402       .  A
C1641      N1648   1.438       .  S
C1642      H1647   1.084       .  S
C1643      C1644   1.410       .  A
C1644      N1645   1.432       .  S
N1645      H1649   1.046       .  S
N1645      H1650   1.044   1_655  S
N1648      H1651   1.045       .  S
N1648      H1652   1.046       .  S
C1653      C2242   1.405       .  A
C1653      C1658   1.404       .  A
C1653      H1660   1.084       .  S
C1654      C2241   1.403       .  A
C1654      C1655   1.412       .  A
C1655      C1656   1.401       .  A
C1655      N1662   1.438       .  S
C1656      C1657   1.399       .  A
C1656      H1661   1.082       .  S
C1657      C2246   1.411       .  A
C1658      C2245   1.412       .  A
C1658      N1659   1.439       .  S
N1659      H1663   1.045       .  S
N1659      H1664   1.046       .  S
N1662      H1665   1.044       .  S
N1662      H1666   1.045       .  S
C1667      C1668   1.402       .  A
C1667      C1672   1.397       .  A
C1667      H1674   1.084       .  S
C1668      C1669   1.416       .  A
C1669      C1670   1.396       .  A
C1669      N1676   1.434       .  S
C1670      C1671   1.399       .  A
C1670      H1675   1.082       .  S
C1671      C1672   1.407       .  A
C1672      N1673   1.433       .  S
N1673      H1677   1.044       .  S
N1673      H1678   1.047       .  S
N1676      H1679   1.042       .  S
N1676      H1680   1.046       .  S
C1681      C1682   1.398       .  A
C1681      C1686   1.390       .  A
C1681      H1688   1.084       .  S
C1682      C1683   1.417       .  A
C1683      C1684   1.401       .  A
C1683      N1690   1.431       .  S
C1684      C1685   1.401       .  A
C1685      C1686   1.409       .  A
C1686      N1687   1.434       .  S
N1687      H1691   1.046       .  S
N1690      H1693   1.045       .  S
N1690      H1694   1.044       .  S
C1695      C1696   1.402       .  A
C1695      C1700   1.406       .  A
C1695      H1702   1.084       .  S
C1696      C1697   1.409       .  A
C1697      C1698   1.388       .  A
C1697      N1704   1.434       .  S
C1698      C1699   1.398       .  A
C1698      H1703   1.084       .  S
C1699      C1700   1.409       .  A
C1700      N1701   1.430       .  S
N1701      H1705   1.045       .  S
N1701      H1706   1.046       .  S
N1704      H1707   1.046       .  S
N1704      H1708   1.046       .  S
C1709      C1710   1.403       .  A
C1709      C1714   1.407       .  A
C1709      H1716   1.084       .  S
C1710      C1711   1.410       .  A
C1710      C1802   1.471       .  S
C1711      C1712   1.391       .  A
C1711      N2306   1.440       .  S
C1712      C1713   1.399       .  A
C1712      H1717   1.084       .  S
C1713      C1714   1.412       .  A
C1714      N1715   1.437       .  S
N1715      H1719   1.046       .  S
N1715      H1720   1.045       .  S
N1718      C2299   1.440       .  S
N1718      H1721   1.046       .  S
N1718      H1722   1.045       .  S
C1723      C1724   1.401       .  A
C1723      C1728   1.398       .  A
C1723      H1730   1.084       .  S
C1724      C1725   1.409       .  A
C1724      C1787   1.462       .  S
C1725      C1726   1.388       .  A
C1725      N2320   1.434       .  S
C1726      C1727   1.401       .  A
C1726      H1731   1.084       .  S
C1727      C1728   1.410       .  A
C1728      N1729   1.428       .  S
N1729      H1733   1.045       .  S
N1729      H1734   1.042       .  S
N1732      C2313   1.434       .  S
N1732      H1735   1.046       .  S
N1732      H1736   1.044       .  S
C1737      C1738   1.402       .  A
C1737      C1742   1.392       .  A
C1737      H1744   1.084       .  S
C1738      C1739   1.417       .  A
C1739      C1740   1.404       .  A
C1739      N1746   1.438       .  S
C1740      C1741   1.399       .  A
C1740      H1745   1.076       .  S
C1741      C1742   1.409       .  A
C1742      N1743   1.434       .  S
N1743      H1747   1.046       .  S
N1743      H1748   1.045       .  S
N1746      H1749   1.044       .  S
N1746      H1750   1.046       .  S
C1751      C1752   1.399       .  A
C1751      C1756   1.397       .  A
C1751      H1758   1.075       .  S
C1752      C1753   1.409       .  A
C1753      C1754   1.395       .  A
C1753      N1760   1.433       .  S
C1754      C1755   1.401       .  A
C1754      H1759   1.084       .  S
C1755      C1756   1.412       .  A
C1756      N1757   1.433       .  S
N1757      H1761   1.043   1_655  S
N1757      H1762   1.045       .  S
N1760      H1763   1.046       .  S
N1760      H1764   1.046       .  S
C1765      C1766   1.428       .  A
C1765      C1853   1.482       .  S
C1766      C1767   1.423       .  A
C1766      H1771   1.083       .  S
C1767      C1768   1.400       .  A
C1767      C2072   1.491       .  S
C1768      H1772   1.086       .  S
C1769      C1770   1.389       .  A
C1769      C2343   1.462       .  S
C1770      H1773   1.085       .  S
C1774      C1775   1.401       .  A
C1774      C1779   1.425       .  A
C1774      C1852   1.481       .  S
C1775      C1776   1.391       .  A
C1775      H1780   1.085       .  S
C1776      C1777   1.394       .  A
C1776      C2326   1.474       .  S
C1777      C1778   1.407       .  A
C1777      H1781   1.085       .  S
C1778      C1779   1.420       .  A
C1778      C2073   1.496       .  S
C1779      H1782   1.083       .  S
C1783      C1784   1.429       .  A
C1783      C1788   1.397   1_565  A
C1783      C1851   1.476       .  S
C1784      C1785   1.425       .  A
C1784      H1789   1.082       .  S
C1785      C1786   1.404       .  A
C1785      C2074   1.499       .  S
C1786      C1787   1.390   1_565  A
C1786      H1790   1.085       .  S
C1787      C1788   1.383       .  A
C1792      C2340   1.460       .  S
C1792      N1793   1.356       .  A
C1792      N1797   1.349       .  A
N1793      C1794   1.359       .  A
C1794      C2329   1.463       .  S
C1794      N1795   1.359       .  A
N1795      C1796   1.355       .  A
C1796      C2315   1.463       .  S
C1796      N1797   1.351       .  A
C1798      C1799   1.429       .  A
C1798      C1803   1.411       .  A
C1798      C1848   1.493       .  S
C1799      C1800   1.421       .  A
C1799      H1804   1.082       .  S
C1800      C1801   1.395       .  A
C1800      C1909   1.486       .  S
C1801      C1802   1.384       .  A
C1801      H1805   1.085       .  S
C1802      C1803   1.390       .  A
C1807      C1808   1.424       .  A
C1807      C1812   1.411       .  A
C1807      C1850   1.486       .  S
C1808      C1809   1.414       .  A
C1808      H1813   1.083       .  S
C1809      C1810   1.392       .  A
C1809      C1906   1.476       .  S
C1810      C1811   1.383       .  A
C1810      H1814   1.084       .  S
C1811      C1812   1.393       .  A
C1811      C2284   1.469       .  S
C1812      H1815   1.084       .  S
C1816      C2270   1.467       .  S
C1816      N1817   1.355       .  A
C1816      N1821   1.350       .  A
N1817      C1818   1.353       .  A
C1818      C2287   1.463       .  S
C1818      N1819   1.357       .  A
N1819      C1820   1.352       .  A
C1820      C2301   1.463       .  S
C1820      N1821   1.355       .  A
C1822      C1823   1.426       .  A
C1822      C1827   1.411       .  A
C1822      C1849   1.492       .  S
C1823      C1824   1.420       .  A
C1823      H1828   1.083       .  S
C1824      C1825   1.394       .  A
C1824      C1907   1.479       .  S
C1825      C1826   1.383       .  A
C1825      H1829   1.085       .  S
C1826      C1827   1.389       .  A
C1827      H1830   1.084   1_655  S
Zn1831     O1836   2.070       .  S
Zn1832     O1837   2.077       .  S
Zn1832     O1839   2.012       .  S
Zn1832     O1843   2.029   1_556  S
Zn1832     O1835   1.982       .  S
Zn1833     O1844   2.022   1_556  S
Zn1834     O1845   2.052       .  S
Zn1834     O1835   1.956   1_554  S
O1836      C1848   1.277       .  A
O1837      C1849   1.277       .  A
O1838      C1850   1.276       .  A
O1840      C1850   1.276       .  A
O1841      C1849   1.275       .  A
O1842      C1851   1.278       .  A
O1843      C1852   1.272       .  A
O1844      C1851   1.271       .  A
O1845      C1852   1.280       .  A
O1847      C1853   1.273       .  A
C1854      C1855   1.402       .  A
C1854      C1859   1.434       .  A
C1854      C1964   1.507       .  S
C1855      C1856   1.394       .  A
C1855      H1860   1.086       .  S
C1856      C1857   1.392       .  A
C1856      C2256   1.477       .  S
C1857      C1858   1.404       .  A
C1857      H1861   1.085       .  S
C1858      C1859   1.440       .  A
C1858      C1905   1.504       .  S
C1859      H1862   1.083       .  S
C1863      C1864   1.400       .  A
C1863      C1960   1.509       .  S
C1864      C1865   1.396   1_565  A
C1864      H1869   1.085       .  S
C1865      C2242   1.479       .  S
C1866      C1867   1.401       .  A
C1866      H1870   1.085       .  S
C1867      C1868   1.441       .  A
C1867      C1904   1.502       .  S
C1868      H1871   1.082       .  S
C1872      C1877   1.401       .  A
C1872      C1961   1.508       .  S
C1873      C1874   1.438       .  A
C1873      H1878   1.083       .  S
C1874      C1875   1.400       .  A
C1874      C1908   1.497       .  S
C1875      C1876   1.389       .  A
C1875      H1879   1.085       .  S
C1876      C2231   1.477       .  S
C1877      H1880   1.085       .  S
C1881      C2228   1.463       .  S
N1882      C1883   1.357       .  A
C1883      C2259   1.464       .  S
C1883      N1884   1.354       .  A
C1885      C2245   1.463       .  S
Zn1887     O1892   2.054       .  S
Zn1887     O1896   2.044       .  S
Zn1887     O1903   2.024       .  S
Zn1887     O1891   1.975       .  S
Zn1888     O1893   2.095       .  S
Zn1888     O1895   2.097       .  S
Zn1888     O1899   2.086       .  S
Zn1888     O1891   1.924       .  S
Zn1889     O1894   2.016       .  S
Zn1889     O1897   2.060       .  S
Zn1889     O1900   2.038       .  S
Zn1889     O1891   1.970       .  S
Zn1890     O1898   2.032       .  S
Zn1890     O1901   2.050       .  S
Zn1890     O1902   2.066       .  S
Zn1890     O1891   1.972       .  S
O1892      C1904   1.273       .  A
O1893      C1905   1.287       .  A
O1894      C1906   1.278       .  A
O1895      C1904   1.288       .  A
O1896      C1906   1.273       .  A
O1897      C1905   1.273       .  A
O1898      C1907   1.281       .  A
O1899      C1908   1.287       .  A
O1900      C1907   1.272       .  A
O1901      C1908   1.273       .  A
O1902      C1909   1.275       .  A
O1903      C1909   1.279       .  A
C1910      C1911   1.424       .  A
C1910      C1915   1.399       .  A
C1910      C2018   1.481       .  S
C1911      C1912   1.419       .  A
C1911      H1916   1.083       .  S
C1912      C1913   1.409       .  A
C1912      C1963   1.498       .  S
C1913      C1914   1.401       .  A
C1913      H1917   1.083       .  S
C1914      C1915   1.392       .  A
C1914      C2214   1.481       .  S
C1915      H1918   1.085       .  S
C1919      C1924   1.424       .  A
C1919      C2017   1.482       .  S
C1920      C1921   1.395       .  A
C1920      H1925   1.085       .  S
C1921      C2203   1.480       .  S
C1922      C1923   1.407       .  A
C1922      H1926   1.084       .  S
C1923      C1924   1.419       .  A
C1923      C1962   1.498       .  S
C1924      H1927   1.083       .  S
C1928      C1929   1.421       .  A
C1928      C1933   1.400       .  A
C1928      C2019   1.476       .  S
C1929      C1930   1.416       .  A
C1929      H1934   1.083       .  S
C1930      C1931   1.404       .  A
C1930      C1965   1.489       .  S
C1931      C1932   1.396       .  A
C1931      H1935   1.084       .  S
C1932      C1933   1.393       .  A
C1937      C2186   1.471       .  S
C1937      N1938   1.359       .  A
C1937      N1942   1.356       .  A
N1938      C1939   1.357       .  A
C1939      C2217   1.470       .  S
C1939      N1940   1.358       .  A
N1940      C1941   1.355       .  A
C1941      C2200   1.467       .  S
C1941      N1942   1.356       .  A
Zn1943     O1948   1.999       .  S
Zn1943     O1952   2.077       .  S
Zn1943     O1959   2.027       .  S
Zn1943     O1947   1.970       .  S
Zn1944     O1949   2.181       .  S
Zn1944     O1951   2.175       .  S
Zn1944     O1955   2.181       .  S
Zn1944     O1947   2.029       .  S
Zn1945     O1950   2.030       .  S
Zn1945     O1953   1.986       .  S
Zn1945     O1956   2.080       .  S
Zn1945     O1947   1.964       .  S
Zn1946     O1954   2.027       .  S
Zn1946     O1957   1.973       .  S
Zn1946     O1958   2.052       .  S
Zn1946     O1947   1.963       .  S
O1948      C1960   1.270       .  A
O1949      C1961   1.291       .  A
O1950      C1962   1.279       .  A
O1951      C1960   1.289       .  A
O1952      C1962   1.278       .  A
O1953      C1961   1.270       .  A
O1954      C1963   1.277       .  A
O1955      C1964   1.289       .  A
O1956      C1963   1.278       .  A
O1957      C1964   1.268       .  A
O1958      C1965   1.275       .  A
O1959      C1965   1.279       .  A
C1966      C1967   1.407       .  A
C1966      C1971   1.428       .  A
C1966      C2020   1.502       .  S
C1967      C1968   1.392       .  A
C1967      H1972   1.084       .  S
C1968      C1969   1.384       .  A
C1968      C2175   1.464       .  S
C1969      C1970   1.393       .  A
C1969      H1973   1.087       .  S
C1970      C1971   1.427       .  A
C1970      C2098   1.476       .  S
C1971      H1974   1.083       .  S
C1975      C1976   1.429       .  A
C1975      C1980   1.405       .  A
C1975      C2021   1.500       .  S
C1976      C1977   1.427       .  A
C1976      H1981   1.082       .  S
C1977      C1978   1.390       .  A
C1977      C2099   1.469       .  S
C1978      C1979   1.376       .  A
C1978      H1982   1.087       .  S
C1979      C1980   1.385       .  A
C1980      H1983   1.076       .  S
C1984      C1985   1.426       .  A
C1984      C1989   1.406       .  A
C1984      C2016   1.495       .  S
C1985      C1986   1.424       .  A
C1985      H1990   1.083       .  S
C1986      C1987   1.392       .  A
C1986      C2100   1.467       .  S
C1987      C1988   1.379       .  A
C1987      H1991   1.087       .  S
C1988      C1989   1.384       .  A
C1993      C2147   1.453       .  S
C1993      N1994   1.352       .  A
C1993      N1998   1.352       .  A
N1994      C1995   1.352       .  A
C1995      C2172   1.459       .  S
C1995      N1996   1.354       .  A
N1996      C1997   1.353       .  A
C1997      C2161   1.450       .  S
C1997      N1998   1.351       .  A
Zn1999     O2004   2.077       .  S
Zn1999     O2008   2.029       .  S
Zn2000     O2011   2.085       .  S
Zn2000     O2003   1.979       .  S
Zn2001     O2009   2.046       .  S
Zn2001     O2012   2.035       .  S
Zn2001     O2003   1.961       .  S
Zn2002     O2010   2.022       .  S
Zn2002     O2013   2.017       .  S
Zn2002     O2003   1.983       .  S
O2004      C2016   1.278       .  A
O2005      C2017   1.271       .  A
O2006      C2018   1.279       .  A
O2008      C2018   1.271       .  A
O2010      C2019   1.271       .  A
O2011      C2020   1.278       .  A
O2012      C2019   1.277       .  A
O2013      C2020   1.279       .  A
O2014      C2021   1.276       .  A
O2015      C2021   1.279       .  A
C2022      C2023   1.408       .  A
C2022      C2027   1.431   1_565  A
C2022      C2075   1.494       .  S
C2023      C2024   1.399       .  A
C2023      H2028   1.081       .  S
C2024      C2130   1.484       .  S
C2025      C2026   1.401       .  A
C2025      H2029   1.083       .  S
C2026      C2095   1.495       .  S
C2027      H2030   1.083       .  S
C2031      C2032   1.424       .  A
C2031      C2036   1.409       .  A
C2031      C2076   1.490       .  S
C2032      C2033   1.414       .  A
C2032      H2037   1.082       .  S
C2033      C2034   1.394       .  A
C2033      C2097   1.482       .  S
C2034      C2035   1.391       .  A
C2034      H2038   1.084       .  S
C2035      C2036   1.403       .  A
C2035      C2119   1.485       .  S
C2036      H2039   1.078       .  S
C2040      C2041   1.405       .  A
C2040      C2077   1.492       .  S
C2041      H2046   1.082       .  S
C2042      C2043   1.387       .  A
C2042      C2105   1.469       .  S
C2043      C2044   1.397       .  A
C2043      H2047   1.084       .  S
C2044      C2045   1.424       .  A
C2044      C2096   1.492       .  S
C2045      H2048   1.082       .  S
C2049      C2133   1.475       .  S
C2049      N2050   1.354   1_545  A
N2050      C2051   1.356       .  A
C2051      C2102   1.468       .  S
N2052      C2053   1.358       .  A
C2053      C2116   1.482       .  S
Zn2055     O2060   2.040       .  S
Zn2055     O2064   2.083       .  S
Zn2055     O2071   2.047       .  S
Zn2055     O2059   1.980       .  S
Zn2056     O2061   2.011       .  S
Zn2056     O2063   2.053       .  S
Zn2056     O2067   2.023       .  S
Zn2056     O2059   1.978       .  S
Zn2057     O2062   2.026       .  S
Zn2057     O2065   2.080       .  S
Zn2057     O2068   2.038       .  S
Zn2057     O2059   1.976       .  S
Zn2058     O2066   2.093       .  S
Zn2058     O2069   2.076       .  S
Zn2058     O2070   2.068       .  S
Zn2058     O2059   1.969       .  S
O2060      C2072   1.282       .  A
O2061      C2073   1.277       .  A
O2062      C2074   1.281       .  A
O2063      C2072   1.276       .  A
O2064      C2074   1.280       .  A
O2065      C2073   1.278       .  A
O2066      C2075   1.283       .  A
O2067      C2076   1.270       .  A
O2068      C2075   1.272       .  A
O2069      C2076   1.279       .  A
O2070      C2077   1.280       .  A
O2071      C2077   1.273       .  A
Zn2078     O2083   2.091       .  S
Zn2078     O2087   2.034       .  S
Zn2078     O2094   2.000       .  S
Zn2078     O2082   1.930       .  S
Zn2079     O2084   2.086       .  S
Zn2079     O2086   2.014       .  S
Zn2079     O2090   2.017       .  S
Zn2079     O2082   1.917       .  S
Zn2080     O2085   2.061       .  S
Zn2080     O2088   2.023       .  S
Zn2080     O2091   2.017       .  S
Zn2080     O2082   1.923       .  S
Zn2081     O2089   2.081       .  S
Zn2081     O2092   2.080       .  S
Zn2081     O2093   2.069       .  S
Zn2081     O2082   1.945       .  S
O2083      C2095   1.277       .  A
O2084      C2096   1.279       .  A
O2085      C2097   1.277       .  A
O2086      C2095   1.276       .  A
O2087      C2097   1.279       .  A
O2088      C2096   1.278       .  A
O2089      C2098   1.284       .  A
O2090      C2099   1.268       .  A
O2091      C2098   1.267       .  A
O2092      C2099   1.284       .  A
O2093      C2100   1.282       .  A
O2094      C2100   1.270       .  A
C2101      C2106   1.402       .  A
C2101      H2108   1.081       .  S
C2102      C2103   1.408       .  A
C2103      C2104   1.395       .  A
C2103      N2110   1.434       .  S
C2104      C2105   1.399       .  A
C2104      H2109   1.085       .  S
C2106      N2107   1.432       .  S
N2107      H2111   1.045       .  S
N2107      H2112   1.046       .  S
N2110      H2113   1.046       .  S
N2110      H2114   1.046       .  S
C2115      C2116   1.406       .  A
C2115      C2120   1.405       .  A
C2115      H2122   1.076       .  S
C2116      C2117   1.409       .  A
C2117      C2118   1.396       .  A
C2117      N2124   1.432       .  S
C2118      C2119   1.406       .  A
C2118      H2123   1.085       .  S
C2119      C2120   1.411       .  A
C2120      N2121   1.432       .  S
N2121      H2125   1.043       .  S
N2121      H2126   1.045       .  S
N2124      H2127   1.045       .  S
N2124      H2128   1.046       .  S
C2129      C2134   1.396       .  A
C2129      H2136   1.085       .  S
C2130      C2131   1.412       .  A
C2131      C2132   1.410       .  A
C2131      N2138   1.437       .  S
C2132      C2133   1.406   1_565  A
C2132      H2137   1.083       .  S
C2134      N2135   1.433       .  S
N2135      H2139   1.045       .  S
N2135      H2140   1.046       .  S
N2138      H2141   1.045       .  S
N2138      H2142   1.046       .  S
C2143      C2144   1.397       .  A
C2143      C2148   1.395       .  A
C2144      C2145   1.410       .  A
C2145      C2146   1.392       .  A
C2145      N2152   1.432       .  S
C2146      C2147   1.398       .  A
C2146      H2151   1.082       .  S
C2147      C2148   1.411       .  A
C2148      N2149   1.439       .  S
N2149      H2153   1.046       .  S
N2149      H2154   1.045       .  S
N2152      H2155   1.045       .  S
N2152      H2156   1.044       .  S
C2157      C2158   1.400       .  A
C2157      C2162   1.393       .  A
C2158      C2159   1.401       .  A
C2159      C2160   1.395       .  A
C2159      N2166   1.438       .  S
C2160      C2161   1.403       .  A
C2160      H2165   1.085       .  S
C2161      C2162   1.410       .  A
C2162      N2163   1.437       .  S
N2163      H2167   1.045       .  S
N2163      H2168   1.043       .  S
N2166      H2170   1.046       .  S
C2171      C2172   1.402       .  A
C2171      C2176   1.394       .  A
C2171      H2178   1.084       .  S
C2172      C2173   1.412       .  A
C2173      C2174   1.392       .  A
C2173      N2180   1.437       .  S
C2174      C2175   1.401       .  A
C2174      H2179   1.085       .  S
C2175      C2176   1.414       .  A
C2176      N2177   1.440       .  S
N2177      H2181   1.046       .  S
N2177      H2182   1.042       .  S
N2180      H2183   1.041       .  S
N2180      H2184   1.046       .  S
C2185      C2186   1.400       .  A
C2185      C2190   1.395       .  A
C2185      H2192   1.078       .  S
C2186      C2187   1.411       .  A
C2187      C2188   1.402       .  A
C2187      N2194   1.438       .  S
C2188      C2189   1.404       .  A
C2189      C2190   1.412       .  A
C2190      N2191   1.434       .  S
N2191      H2195   1.045       .  S
N2191      H2196   1.043       .  S
N2194      H2197   1.046       .  S
N2194      H2198   1.046       .  S
C2199      C2200   1.399       .  A
C2199      C2204   1.396       .  A
C2199      H2206   1.081       .  S
C2200      C2201   1.410       .  A
C2201      C2202   1.404       .  A
C2201      N2208   1.439       .  S
C2202      C2203   1.404       .  A
C2202      H2207   1.084       .  S
C2203      C2204   1.414       .  A
C2204      N2205   1.433       .  S
N2205      H2209   1.045       .  S
N2205      H2210   1.043       .  S
N2208      H2211   1.046       .  S
N2208      H2212   1.046       .  S
C2213      C2214   1.406       .  A
C2213      C2218   1.402       .  A
C2213      H2220   1.084       .  S
C2214      C2215   1.413       .  A
C2215      C2216   1.397       .  A
C2215      N2222   1.434       .  S
C2216      C2217   1.401       .  A
C2216      H2221   1.080       .  S
C2217      C2218   1.409       .  A
C2218      N2219   1.438       .  S
N2219      H2223   1.046       .  S
N2219      H2224   1.045       .  S
N2222      H2225   1.045       .  S
N2222      H2226   1.043       .  S
C2227      C2228   1.398       .  A
C2227      C2232   1.396       .  A
C2227      H2234   1.083       .  S
C2229      C2230   1.404       .  A
C2229      N2236   1.438       .  S
C2230      H2235   1.084       .  S
C2231      C2232   1.408       .  A
C2232      N2233   1.432       .  S
N2233      H2237   1.046       .  S
N2233      H2238   1.045   1_655  S
N2236      H2239   1.045       .  S
N2236      H2240   1.046       .  S
C2241      C2246   1.402       .  A
C2241      H2248   1.084       .  S
C2242      C2243   1.411   1_545  A
C2243      C2244   1.397       .  A
C2243      N2250   1.438       .  S
C2244      C2245   1.397   1_565  A
C2244      H2249   1.083       .  S
C2246      N2247   1.438       .  S
N2247      H2251   1.046       .  S
N2247      H2252   1.046       .  S
N2250      H2253   1.045   1_565  S
N2250      H2254   1.044       .  S
C2255      C2256   1.401       .  A
C2255      C2260   1.398       .  A
C2255      H2262   1.084       .  S
C2256      C2257   1.416       .  A
C2257      C2258   1.398       .  A
C2257      N2264   1.433       .  S
C2258      C2259   1.399       .  A
C2258      H2263   1.083       .  S
C2259      C2260   1.408       .  A
C2260      N2261   1.433       .  S
N2261      H2265   1.045       .  S
N2261      H2266   1.046       .  S
N2264      H2267   1.042       .  S
N2264      H2268   1.046       .  S
C2269      C2270   1.400       .  A
C2269      C2274   1.390       .  A
C2269      H2276   1.084       .  S
C2270      C2271   1.416       .  A
C2271      C2272   1.397       .  A
C2271      N2278   1.430       .  S
C2272      C2273   1.400       .  A
C2273      C2274   1.410       .  A
C2274      N2275   1.434       .  S
N2275      H2279   1.046       .  S
N2278      H2281   1.045       .  S
N2278      H2282   1.043       .  S
C2283      C2284   1.401       .  A
C2283      C2288   1.403       .  A
C2283      H2290   1.084       .  S
C2284      C2285   1.410       .  A
C2285      C2286   1.389       .  A
C2285      N2292   1.434       .  S
C2286      C2287   1.398       .  A
C2286      H2291   1.084       .  S
C2287      C2288   1.409       .  A
C2288      N2289   1.431       .  S
N2289      H2293   1.045       .  S
N2289      H2294   1.046       .  S
N2292      H2295   1.046       .  S
N2292      H2296   1.046       .  S
C2297      C2298   1.402       .  A
C2297      C2302   1.407       .  A
C2297      H2304   1.084       .  S
C2298      C2299   1.410       .  A
C2299      C2300   1.389       .  A
C2300      C2301   1.398       .  A
C2300      H2305   1.084       .  S
C2301      C2302   1.411       .  A
C2302      N2303   1.437       .  S
N2303      H2307   1.047       .  S
N2303      H2308   1.045       .  S
N2306      H2309   1.046       .  S
N2306      H2310   1.046       .  S
C2311      C2312   1.403       .  A
C2311      C2316   1.398       .  A
C2311      H2318   1.084       .  S
C2312      C2313   1.410       .  A
C2313      C2314   1.388       .  A
C2314      C2315   1.402       .  A
C2314      H2319   1.083       .  S
C2315      C2316   1.409       .  A
C2316      N2317   1.429       .  S
N2317      H2321   1.045       .  S
N2317      H2322   1.042       .  S
N2320      H2323   1.046       .  S
N2320      H2324   1.044       .  S
C2325      C2326   1.402       .  A
C2325      C2330   1.393       .  A
C2325      H2332   1.084       .  S
C2326      C2327   1.417       .  A
C2327      C2328   1.402       .  A
C2327      N2334   1.439       .  S
C2328      C2329   1.398       .  A
C2328      H2333   1.077       .  S
C2329      C2330   1.409       .  A
C2330      N2331   1.434       .  S
N2331      H2335   1.046       .  S
N2331      H2336   1.045       .  S
N2334      H2337   1.044       .  S
N2334      H2338   1.046       .  S
C2339      C2340   1.399       .  A
C2339      C2344   1.397       .  A
C2339      H2346   1.075       .  S
C2340      C2341   1.406       .  A
C2341      C2342   1.391       .  A
C2341      N2348   1.433       .  S
C2342      C2343   1.398       .  A
C2342      H2347   1.085       .  S
C2343      C2344   1.411       .  A
C2344      N2345   1.432       .  S
N2345      H2349   1.043   1_655  S
N2345      H2350   1.045       .  S
N2348      H2351   1.046       .  S
N2348      H2352   1.046       .  S
