geometry optimzed in LAMMPS
_audit_creation_date              2020-12-01 
_audit_creation_method            'lammps2cif' 
_symmetry_space_group_name_H-M    'P1' 
_symmetry_Int_Tables_number       1 
_symmetry_cell_setting            triclinic 
loop_ 
_symmetry_equiv_pos_as_xyz 
  x,y,z 
_cell_length_a                    39.43550358 
_cell_length_b                    40.14260234905927 
_cell_length_c                    37.589988139950506 
_cell_angle_alpha                 90.11784152429702 
_cell_angle_beta                  108.26523082749226 
_cell_angle_gamma                 89.59744800843468 
loop_ 
_atom_site_label 
_atom_site_type_symbol 
_atom_site_fract_x 
_atom_site_fract_y 
_atom_site_fract_z 
_atom_site_charge 
C1          C  0.80332214  0.09257441  0.41525678     0.31000
C2          C  0.83709402  0.05446384  0.37512872     0.31000
C3          C  0.82212262  0.11239100  0.39097194    -0.05200
C4          C  0.83345329  0.06949936  0.43803388    -0.06000
C5          C  0.77902063  0.06834574  0.38593190    -0.05800
C6          C  0.83892692  0.09271111  0.37053205    -0.05200
C7          C  0.85040252  0.05006302  0.41780572    -0.06000
C8          C  0.79626865  0.04923311  0.36577768    -0.05800
C9          C  0.84904540  0.11385481  0.34669309    -0.31200
N10         N  0.84195654  0.14576028  0.35365479     0.15300
C11         C  0.82398420  0.14519008  0.37925928    -0.31200
H12         H  0.81046856  0.16666366  0.38602404     0.17200
C13         C  0.87367027  0.02892363  0.44295593    -0.30200
N14         N  0.87174769  0.03556591  0.47774252     0.14000
C15         C  0.84724859  0.06021631  0.47498424    -0.30200
C16         C  0.77108307  0.02754542  0.34400566    -0.30500
N17         N  0.73961372  0.03168535  0.35120757     0.14500
H18         H  0.77535547  0.50923631  0.32468875     0.17100
C19         C  0.74357509  0.05749618  0.37541419    -0.30500
H20         H  0.72212540  0.06712609  0.38468979     0.17100
H21         H  0.83851100  0.06919830  0.49787969     0.17100
H22         H  0.85810180  0.10670012  0.32344502     0.17200
H23         H  0.88955781  0.00921864  0.43630175     0.17100
O24         O  0.68463362  0.19290016  0.44554202    -0.80800
C25         C  0.61600243  0.23825586  0.29507393     0.98400
O26         O  0.63275030  0.21166217  0.30616492    -0.69900
O27         O  0.69383599  0.23036141  0.35174584    -0.73500
Al28       Al  0.66112848  0.19746813  0.35449937     1.49000
C29         C  0.71538461  0.24504273  0.37928439     0.93800
O30         O  0.66602851  0.28207390  0.41420001    -0.79700
O31         O  0.58580936  0.22746663  0.40665310    -0.73300
Al32       Al  0.67257903  0.23718555  0.42677754     1.90100
O33         O  0.60973326  0.28477921  0.38035299    -0.72300
O34         O  0.58015392  0.19644194  0.34009306    -0.72200
O35         O  0.60475015  0.25503511  0.31740818    -0.77900
O36         O  0.62825988  0.16401182  0.35484884    -0.76100
O37         O  0.64364131  0.22434997  0.38187031    -1.12200
O38         O  0.69532044  0.17554447  0.39497269    -0.71400
C39         C  0.70077856  0.17361283  0.42973358     0.99300
C40         C  0.63949078  0.29880208  0.39560199     0.95700
Al41       Al  0.59870813  0.23939986  0.36310289     1.55600
O42         O  0.71427217  0.24085976  0.41209457    -0.76000
C43         C  0.59501219  0.16815792  0.33968692     0.99900
C44         C  0.60420437  0.23229488  0.44042389     0.94800
O45         O  0.63714059  0.23753759  0.44966382    -0.81300
C46         C  0.67823028  0.34350558  0.13599276     0.31000
C47         C  0.64410410  0.30534280  0.17518707     0.31000
C48         C  0.66002632  0.36316193  0.16125591    -0.05200
C49         C  0.64760583  0.32152527  0.11269714    -0.06000
C50         C  0.70217027  0.31799376  0.16419777    -0.05800
C51         C  0.64313165  0.34343535  0.18127286    -0.05200
C52         C  0.63049862  0.30206263  0.13250401    -0.06000
C53         C  0.68468748  0.29900677  0.18399988    -0.05800
C54         C  0.63301433  0.36432911  0.20556630    -0.31200
N55         N  0.64000107  0.39621583  0.19902018     0.15300
C56         C  0.65800294  0.39583408  0.17346412    -0.31200
H57         H  0.67114140  0.41741853  0.16685990     0.17200
C58         C  0.60817245  0.28060820  0.10727647    -0.30200
N59         N  0.61070559  0.28716592  0.07280394     0.14000
C60         C  0.63476944  0.31192920  0.07584542    -0.30200
C61         C  0.70927364  0.27624089  0.20483814    -0.30500
N62         N  0.74054707  0.27936785  0.19720391     0.14500
H63         H  0.70474539  0.25791355  0.22385771     0.17100
C64         C  0.73716756  0.30562516  0.17370008    -0.30500
H65         H  0.75871349  0.31465782  0.16440318     0.17100
H66         H  0.64413574  0.32053907  0.05331499     0.17100
H67         H  0.62354310  0.35706324  0.22844059     0.17200
H68         H  0.59282148  0.26057949  0.11372912     0.17100
O69         O  0.79810235  0.44203158  0.10467451    -0.80800
C70         C  0.86849496  0.48528862  0.25587183     0.98600
O71         O  0.85134652  0.45923590  0.24439689    -0.69900
O72         O  0.79138466  0.48151592  0.19870973    -0.73500
Al73       Al  0.82250429  0.44685835  0.19569718     1.49000
C74         C  0.77026840  0.49694720  0.17129857     0.93800
O75         O  0.82135310  0.03107375  0.13538061    -0.79700
O76         O  0.89946357  0.47448654  0.14371176    -0.73300
Al77       Al  0.81270243  0.48611567  0.12333080     1.90100
O78         O  0.87688917  0.03113138  0.17256437    -0.72300
O79         O  0.90341050  0.44150279  0.20857281    -0.72200
O80         O  0.88148094  0.50077585  0.23422191    -0.77900
O81         O  0.85369280  0.41176789  0.19485061    -0.76100
O82         O  0.84113582  0.47250774  0.16844364    -1.12200
O83         O  0.78716243  0.42651383  0.15554282    -0.71400
C84         C  0.78126613  0.42406011  0.12082300     0.99300
C85         C  0.84789212  0.04614486  0.15623698     0.95700
Al86       Al  0.88662463  0.48553709  0.18773089     1.55600
O87         O  0.77145059  0.99284053  0.13843557    -0.76000
C88         C  0.88727987  0.41404707  0.20847225     0.99900
C89         C  0.88112228  0.47895613  0.10982661     0.94800
O90         O  0.84803711  0.98380870  0.10035072    -0.81300
O91         O  0.57351959  0.45949058  0.25062803    -0.80800
C92         C  0.70860725  0.51094945  0.33541646     0.98600
O93         O  0.68145026  0.51169581  0.34680222    -0.69900
O94         O  0.62358471  0.03915837  0.30436840    -0.73500
Al95       Al  0.63223080  0.49586981  0.32298257     1.49000
C96         C  0.59580112  0.04679049  0.27858560     0.93800
O97         O  0.63601824  0.01604890  0.22277640    -0.79700
O98         O  0.65441406  0.42177749  0.25701971    -0.73300
Al99       Al  0.60581718  0.48736125  0.23732911     1.90100
O100        O  0.68262259  0.48150476  0.24030366    -0.72300
O101        O  0.68141517  0.43253424  0.32748827    -0.72200
O102        O  0.70933632  0.49143261  0.30977969    -0.77900
O103        O  0.63917714  0.45441405  0.34656838    -0.76100
O104        O  0.63918629  0.48046798  0.28177031    -1.12200
O105        O  0.58158646  0.48348889  0.30581284    -0.71400
C106        C  0.56233254  0.46660641  0.27790808     0.99300
C107        C  0.66716053  0.50781113  0.22381354     0.95700
Al108      Al  0.67881607  0.45855881  0.28363526     1.55600
O109        O  0.58327067  0.02694197  0.25151764    -0.76000
C110        C  0.65983543  0.43068060  0.34618938     0.99900
C111        C  0.63758187  0.42364280  0.22287648     0.94800
O112        O  0.61964577  0.44980489  0.21019685    -0.81300
O113        O  0.90570079  0.20418856  0.29695894    -0.80800
C114        C  0.77104645  0.25779742  0.21296268     0.98600
O115        O  0.79737392  0.25617588  0.20033325    -0.69900
O116        O  0.85664146  0.28266193  0.23936358    -0.73500
Al117      Al  0.84623249  0.23894290  0.22363472     1.49000
C118        C  0.88455111  0.29065803  0.26460163     0.93800
O119        O  0.84598775  0.26518843  0.32440834    -0.79700
O120        O  0.82377776  0.17062409  0.29535809    -0.73300
Al121      Al  0.87468801  0.23423286  0.30991312     1.90100
O122        O  0.79836528  0.23258375  0.30958143    -0.72300
O123        O  0.79587560  0.17856817  0.22497335    -0.72200
O124        O  0.77063292  0.23997860  0.23995470    -0.77900
O125        O  0.83706211  0.19661713  0.20205501    -0.76100
O126        O  0.84020501  0.22657534  0.26650975    -1.12200
O127        O  0.89666702  0.22507401  0.24030179    -0.71400
C128        C  0.91663822  0.20975825  0.26926100     0.99300
C129        C  0.81503845  0.25856779  0.32495532     0.95700
Al130      Al  0.80032548  0.20704995  0.26722813     1.55600
O131        O  0.89700276  0.27199870  0.29284719    -0.76000
C132        C  0.81594974  0.17437599  0.20488832     0.99900
C133        C  0.84261296  0.17283214  0.32879947     0.94800
O134        O  0.86151598  0.19859806  0.33970181    -0.81300
C135        C  0.16945404  0.08303814  0.13713585     0.31000
C136        C  0.13714904  0.04515644  0.17822816     0.31000
C137        C  0.15408622  0.10267954  0.16477248    -0.05200
C138        C  0.13708025  0.06241120  0.11478123    -0.06000
C139        C  0.19370496  0.05649988  0.16352125    -0.05800
C140        C  0.13811295  0.08305394  0.18565825    -0.05200
C141        C  0.12085050  0.04312313  0.13562580    -0.06000
C142        C  0.17719329  0.03754632  0.18428414    -0.05800
C143        C  0.13031357  0.10366283  0.21158787    -0.31200
N144        N  0.13797051  0.13546441  0.20554467     0.15300
C145        C  0.15394031  0.13518349  0.17825035    -0.31200
H146        H  0.16700481  0.15659886  0.17115537     0.17200
C147        C  0.09791881  0.02155870  0.11117781    -0.30200
N148        N  0.09917052  0.02775499  0.07613661     0.14000
C149        C  0.12307128  0.05249583  0.07810231    -0.30200
C150        C  0.20264272  0.01536617  0.20520705    -0.30500
N151        N  0.23351054  0.01899073  0.19680226     0.14500
H152        H  0.19917816  0.49754783  0.22529122     0.17100
C153        C  0.22892075  0.04482660  0.17255294    -0.30500
H154        H  0.25005244  0.05446460  0.16298825     0.17100
H155        H  0.13235177  0.06015409  0.05516320     0.17100
H156        H  0.12191402  0.09615629  0.23510696     0.17200
H157        H  0.08389506  0.00100423  0.11869006     0.17100
O158        O  0.28871989  0.18194989  0.10511834    -0.80800
C159        C  0.36750369  0.22698205  0.25306520     0.98600
O160        O  0.35004118  0.20092781  0.24260632    -0.69900
O161        O  0.28905161  0.22444347  0.20036770    -0.73500
Al162      Al  0.31797208  0.18896598  0.19531841     1.49000
C163        C  0.26733102  0.24024257  0.17367324     0.93800
O164        O  0.31306670  0.27131629  0.13124393    -0.79700
O165        O  0.39017769  0.21589485  0.13761475    -0.73300
Al166      Al  0.30409461  0.22636106  0.12146655     1.90100
O167        O  0.36878464  0.27321910  0.16682929    -0.72300
O168        O  0.39746686  0.18344206  0.20367005    -0.72200
O169        O  0.37701205  0.24354361  0.22960782    -0.77900
O170        O  0.34780771  0.15357054  0.19197430    -0.76100
O171        O  0.33448045  0.21395089  0.16585031    -1.12200
O172        O  0.27973488  0.16889678  0.15762659    -0.71400
C173        C  0.27228918  0.16532583  0.12283544     0.99300
C174        C  0.33925248  0.28760468  0.15077167     0.95700
Al175      Al  0.37976052  0.22757453  0.18256822     1.55600
O176        O  0.26514359  0.23442144  0.13998987    -0.76000
C177        C  0.38150536  0.15594478  0.20460391     0.99900
C178        C  0.37050592  0.21876424  0.10399149     0.94800
O179        O  0.33733475  0.22272235  0.09578686    -0.81300
C180        C  0.30689057  0.32995761  0.41111693     0.31000
C181        C  0.34320266  0.29158060  0.37474669     0.31000
C182        C  0.31735691  0.34740801  0.37961087    -0.05200
C183        C  0.34327685  0.31662483  0.43622770    -0.06000
C184        C  0.28868810  0.29712898  0.39385362    -0.05800
C185        C  0.33513161  0.32790262  0.36056478    -0.05200
C186        C  0.36194588  0.29642571  0.41727218    -0.06000
C187        C  0.30562610  0.27885061  0.37326851    -0.05800
C188        C  0.34550119  0.34922571  0.33681436    -0.31200
N189        N  0.33818193  0.38115178  0.34388435     0.15300
C190        C  0.32052063  0.38035589  0.36969962    -0.31200
H191        H  0.31044611  0.40209314  0.38032520     0.17200
C192        C  0.38140999  0.27345384  0.44313340    -0.30200
N193        N  0.37654725  0.27936363  0.47661388     0.14000
C194        C  0.35263628  0.30459084  0.47239012    -0.30200
C195        C  0.28147547  0.25428320  0.35544465    -0.30500
N196        N  0.25195249  0.25594415  0.36698887     0.14500
H197        H  0.28420562  0.23746572  0.33396904     0.17100
C198        C  0.25692621  0.28112054  0.39178840    -0.30500
H199        H  0.23745742  0.28861328  0.40514739     0.17100
H200        H  0.33896512  0.31040317  0.49254055     0.17100
H201        H  0.35742703  0.34243025  0.31556024     0.17200
H202        H  0.39417779  0.25128730  0.43673342     0.17100
O203        O  0.19014322  0.43425556  0.45112536    -0.80800
C204        C  0.11573019  0.48299750  0.30333425     0.98600
O205        O  0.13627288  0.45912815  0.31533758    -0.69900
O206        O  0.19288440  0.48745192  0.36246721    -0.73500
Al207      Al  0.16671044  0.44907129  0.36333547     1.49000
C208        C  0.21448413  0.50003648  0.39174058     0.93800
O209        O  0.16031565  0.02392560  0.43472620    -0.79700
O210        O  0.08686290  0.47031749  0.41554963    -0.73300
Al211      Al  0.17268681  0.47918806  0.43917498     1.90100
O212        O  0.10934142  0.02673952  0.38889498    -0.72300
O213        O  0.08682425  0.43690720  0.35246350    -0.72200
O214        O  0.10340288  0.49835719  0.32567950    -0.77900
O215        O  0.13953510  0.41099394  0.36298807    -0.76100
O216        O  0.14582347  0.46982495  0.39217983    -1.12200
O217        O  0.20591634  0.43088082  0.40087309    -0.71400
C218        C  0.20848167  0.42072986  0.43307174     0.99300
C219        C  0.13615364  0.04052038  0.41186967     0.95700
Al220      Al  0.10023509  0.48177517  0.37266735     1.55600
O221        O  0.21309994  0.99304776  0.42426647    -0.76000
C222        C  0.10556959  0.41082425  0.35178757     0.99900
C223        C  0.10418032  0.46870584  0.44992099     0.94800
O224        O  0.13767128  0.96933670  0.46129136    -0.81300
O225        O  0.07924210  0.19950100  0.26354738    -0.80800
C226        C  0.21890117  0.23845034  0.34999905     0.98600
O227        O  0.19146014  0.24272502  0.36048599    -0.69900
O228        O  0.13601553  0.27536764  0.31964428    -0.73500
Al229      Al  0.14075552  0.23155502  0.33667286     1.49000
C230        C  0.10758344  0.28492883  0.29609510     0.93800
O231        O  0.14377445  0.25388601  0.23832416    -0.79700
O232        O  0.15444097  0.15786156  0.26516938    -0.73300
Al233      Al  0.11234024  0.22644843  0.25118577     1.90100
O234        O  0.18833183  0.21668981  0.25271941    -0.72300
O235        O  0.18254405  0.16393870  0.33632459    -0.72200
O236        O  0.21738604  0.21969757  0.32311693    -0.77900
O237        O  0.14481767  0.19047081  0.35879463    -0.76100
O238        O  0.14569628  0.21624517  0.29466129    -1.12200
O239        O  0.08840033  0.22267240  0.31947601    -0.71400
C240        C  0.06806148  0.20748907  0.29054355     0.99300
C241        C  0.17404042  0.24420037  0.23800917     0.95700
Al242      Al  0.18276788  0.19140749  0.29434843     1.55600
O243        O  0.09258301  0.26649889  0.26834263    -0.76000
C244        C  0.16275609  0.16512517  0.35711645     0.99900
C245        C  0.13820488  0.16216578  0.23122816     0.94800
O246        O  0.12290243  0.18988785  0.22057581    -0.81300
O247        O  0.40279637  0.44802052  0.29216879    -0.80800
C248        C  0.26503948  0.49857707  0.21253762     0.98600
O249        O  0.29099990  0.49797606  0.19926089    -0.69900
O250        O  0.34771523  0.02745521  0.24150773    -0.73500
Al251      Al  0.34120786  0.48418852  0.22262015     1.49000
C252        C  0.37642081  0.03517153  0.26587303     0.93800
O253        O  0.34092455  0.00160660  0.32559703    -0.79700
O254        O  0.32222341  0.40881958  0.28722615    -0.73300
Al255      Al  0.37049281  0.47443798  0.30792211     1.90100
O256        O  0.29467010  0.46735551  0.30892749    -0.72300
O257        O  0.29276493  0.42212260  0.21768818    -0.72200
O258        O  0.26600308  0.48059864  0.23991823    -0.77900
O259        O  0.33635103  0.44252230  0.20012215    -0.76100
O260        O  0.33600581  0.46830591  0.26436779    -1.12200
O261        O  0.39260678  0.47425755  0.23813143    -0.71400
C262        C  0.41335911  0.45766477  0.26538673     0.99300
C263        C  0.31091010  0.49253737  0.32692775     0.95700
Al264      Al  0.29693469  0.44647344  0.26338877     1.55600
O265        O  0.39034286  0.01552980  0.29308927    -0.76000
C266        C  0.31551351  0.41920931  0.20036525     0.99900
C267        C  0.34051027  0.40929191  0.32098546     0.94800
O268        O  0.35887886  0.43501668  0.33424820    -0.81300
C269        C  0.08639545  0.34373466  0.28080898     0.24600
C270        C  0.09165046  0.31604351  0.30458110    -0.23500
C271        C  0.09034417  0.32028849  0.34137334     0.19500
C272        C  0.08961500  0.35213720  0.35601631     0.24600
C273        C  0.08894004  0.38007436  0.33370273    -0.23400
C274        C  0.08487539  0.37574332  0.29535706     0.19500
F275        F  0.08447431  0.40265555  0.27340309    -0.13400
F276        F  0.08732471  0.34025116  0.24519874    -0.15800
F277        F  0.09410923  0.35576574  0.39313383    -0.15800
F278        F  0.09390149  0.29364310  0.36449149    -0.13400
C279        C  0.17843099  0.08679637  0.41466463     0.24600
C280        C  0.14280753  0.07603203  0.40788620    -0.23500
C281        C  0.11458832  0.09719888  0.38905980     0.19500
C282        C  0.12166341  0.12703249  0.37415789     0.24600
C283        C  0.15699175  0.13584565  0.37734087    -0.23400
C284        C  0.18537997  0.11625685  0.39873526     0.19500
F285        F  0.21965009  0.12518805  0.40338624    -0.13400
F286        F  0.20666770  0.06755811  0.43384693    -0.15800
F287        F  0.09373920  0.14603073  0.35387219    -0.15800
F288        F  0.08014307  0.08801595  0.38292233    -0.13400
C289        C  0.23918515  0.53440949  0.35262966     0.24600
C290        C  0.24458947  0.51829710  0.38714086    -0.23500
C291        C  0.27878619  0.50646638  0.40728922     0.19500
C292        C  0.30381866  0.50198321  0.38853712     0.24600
C293        C  0.29464325  0.51062974  0.35064064    -0.23400
C294        C  0.26401604  0.52967564  0.33377119     0.19500
F295        F  0.25579666  0.53915647  0.29735859    -0.13400
F296        F  0.20686793  0.54802865  0.33397294    -0.15800
F297        F  0.33413219  0.48432255  0.40519524    -0.15800
F298        F  0.28513769  0.49252019  0.44166986    -0.13400
C299        C  0.24538419  0.35249228  0.40351206     0.24600
C300        C  0.28170620  0.35136693  0.42546788    -0.23500
C301        C  0.29240669  0.37207064  0.45739652     0.19500
C302        C  0.26695611  0.39323892  0.46559813     0.24600
C303        C  0.23038578  0.39070136  0.44475156    -0.23400
C304        C  0.22002018  0.36585160  0.41765180     0.19500
F305        F  0.18506183  0.36221095  0.39741723    -0.13400
F306        F  0.23422269  0.34203298  0.36727467    -0.15800
F307        F  0.27823785  0.41810180  0.49098280    -0.15800
F308        F  0.32747195  0.37529511  0.47715484    -0.13400
C309        C  0.40182501  0.12478765  0.26388266     0.24600
C310        C  0.40030141  0.12702762  0.22592043    -0.23500
C311        C  0.40180262  0.09776191  0.20629106     0.19500
C312        C  0.39954520  0.06686902  0.22237202     0.24600
C313        C  0.39470639  0.06488667  0.25793911    -0.23400
C314        C  0.39837937  0.09380277  0.27968426     0.19500
F315        F  0.39399111  0.09262577  0.31406320    -0.13400
F316        F  0.40108657  0.15289656  0.28374529    -0.15800
F317        F  0.39746179  0.03906021  0.20120767    -0.15800
F318        F  0.40029920  0.09924180  0.16974748    -0.13400
C319        C  0.29803464  0.33527660  0.15233236     0.24600
C320        C  0.33327066  0.32330152  0.15782450    -0.23500
C321        C  0.36200833  0.34437051  0.17503597     0.19500
C322        C  0.35582099  0.37608535  0.18728928     0.24600
C323        C  0.32075464  0.38731282  0.18310548    -0.23400
C324        C  0.29199028  0.36672897  0.16532496     0.19500
F325        F  0.25800885  0.37681883  0.16107841    -0.13400
F326        F  0.26916968  0.31594011  0.13626603    -0.15800
F327        F  0.38443965  0.39494895  0.20564235    -0.15800
F328        F  0.39620763  0.33391006  0.18133327    -0.13400
C329        C  0.39101534  0.26901970  0.30494697     0.24600
C330        C  0.37399955  0.23858510  0.29214769    -0.23500
C331        C  0.36011251  0.22052182  0.31659547     0.19500
C332        C  0.35629525  0.23582753  0.34848309     0.24600
C333        C  0.36401404  0.26983786  0.35490366    -0.23400
C334        C  0.38760481  0.28363882  0.33757868     0.19500
F335        F  0.40689978  0.31115381  0.35191661    -0.13400
F336        F  0.40935318  0.28528982  0.28524310    -0.15800
F337        F  0.34412444  0.21769180  0.37234779    -0.15800
F338        F  0.34803176  0.18891835  0.30862676    -0.13400
C339        C  0.36633505  0.21027286  0.03766448     0.24600
C340        C  0.38552577  0.22305177  0.07310759    -0.23500
C341        C  0.40862012  0.25006416  0.07527020     0.19500
C342        C  0.40807511  0.26717856  0.04267521     0.24600
C343        C  0.38536988  0.25683363  0.00772579    -0.23400
C344        C  0.36620728  0.22715398  0.00513006     0.19500
F345        F  0.34389132  0.21701799  0.97151591    -0.13400
F346        F  0.34384199  0.18422908  0.03484729    -0.15800
F347        F  0.42686546  0.29578229  0.54544307    -0.15800
F348        F  0.42717972  0.26315654  0.10905450    -0.13400
C349        C  0.25191757  0.27563159  0.21916320     0.24600
C350        C  0.24250167  0.26321603  0.18244220    -0.23500
C351        C  0.20645055  0.26202153  0.16067583     0.19500
C352        C  0.18087816  0.26188959  0.17898756     0.24600
C353        C  0.19225518  0.26401855  0.21809886    -0.23400
C354        C  0.22653927  0.27512944  0.23756758     0.19500
F355        F  0.23673060  0.27955826  0.27525384    -0.13400
F356        F  0.28666604  0.28098416  0.23915767    -0.15800
F357        F  0.14682597  0.25308666  0.15988147    -0.15800
F358        F  0.19667231  0.25422087  0.12372966    -0.13400
C359        C  0.21640951  0.08949783  0.10287717     0.24600
C360        C  0.18757127  0.10296282  0.11315457    -0.23500
C361        C  0.18034403  0.13703428  0.10600495     0.19500
C362        C  0.20724008  0.15804651  0.10241715     0.24600
C363        C  0.24085759  0.14490666  0.10418929    -0.23400
C364        C  0.24422941  0.11035789  0.10090833     0.19500
F365        F  0.27541096  0.09682039  0.09948930    -0.13400
F366        F  0.21874945  0.05626234  0.09721611    -0.15800
F367        F  0.20196550  0.19144964  0.10181416    -0.15800
F368        F  0.14793802  0.15010584  0.10380404    -0.13400
C369        C  0.09364633  0.03684546  0.21654339     0.24600
C370        C  0.11860459  0.02357215  0.20028747    -0.23500
C371        C  0.12864558  0.49013687  0.20841307     0.19500
C372        C  0.12505647  0.47544219  0.24068127     0.24600
C373        C  0.10922414  0.49346330  0.26384217    -0.23400
C374        C  0.09030528  0.02275947  0.24937252     0.19500
F375        F  0.06992852  0.03840403  0.26754359    -0.13400
F376        F  0.07247205  0.06309540  0.20068125    -0.15800
F377        F  0.13908319  0.44451004  0.25026096    -0.15800
F378        F  0.14356725  0.47230632  0.18634967    -0.13400
C379        C  0.10034266  0.47368030  0.04612991     0.24600
C380        C  0.08650331  0.00618768  0.04433770    -0.23500
C381        C  0.06739935  0.01971554  0.00937997     0.19500
C382        C  0.06652001  0.00296852  0.47645867     0.24600
C383        C  0.08613259  0.97321220  0.47840047    -0.23400
C384        C  0.10041350  0.45733180  0.01325377     0.19500
F385        F  0.11909793  0.42842100  0.01580776    -0.13400
F386        F  0.11851066  0.45997381  0.07973235    -0.15800
F387        F  0.05234262  0.01891233  0.44319290    -0.15800
F388        F  0.05338693  0.05091013  0.00721788    -0.13400
C389        C  0.00486449  0.20947385  0.24911494     0.24600
C390        C  0.02941799  0.20318645  0.28488968    -0.23500
C391        C  0.01629593  0.19504811  0.31435079     0.19500
C392        C  0.97936806  0.19396206  0.30839015     0.24600
C393        C  0.95475719  0.20251489  0.27310486    -0.23400
C394        C  0.96812655  0.20936847  0.24335951     0.19500
F395        F  0.94583248  0.21769105  0.20892580    -0.13400
F396        F  0.01640370  0.21823115  0.21999171    -0.15800
F397        F  0.96796970  0.18620840  0.33788044    -0.15800
F398        F  0.03910542  0.18882585  0.34910983    -0.13400
C399        C  0.49895742  0.45368392  0.23990461     0.24600
C400        C  0.52497469  0.45821859  0.27526304    -0.23500
C401        C  0.51392612  0.45863994  0.30736056     0.19500
C402        C  0.47772600  0.45623674  0.30413475     0.24600
C403        C  0.45159755  0.45367166  0.26866153    -0.23400
C404        C  0.46265486  0.45182657  0.23667141     0.19500
F405        F  0.43821940  0.44936940  0.20208746    -0.13400
F406        F  0.50822638  0.45326357  0.20802873    -0.15800
F407        F  0.46814377  0.45911539  0.33570252    -0.15800
F408        F  0.53799895  0.46271990  0.34192075    -0.13400
C409        C  0.90983263  0.35659836  0.20889575     0.24600
C410        C  0.90585022  0.38480801  0.22913304    -0.23500
C411        C  0.90573576  0.38101056  0.26639967     0.19500
C412        C  0.90387588  0.34918908  0.28096427     0.24600
C413        C  0.90244983  0.32112707  0.25840281    -0.23400
C414        C  0.90836537  0.32487105  0.22354525     0.19500
F415        F  0.90810164  0.29784275  0.20166773    -0.13400
F416        F  0.91015449  0.35972356  0.17304836    -0.15800
F417        F  0.89826609  0.34613543  0.31464413    -0.15800
F418        F  0.90172948  0.40806905  0.28648174    -0.13400
C419        C  0.82737042  0.11424334  0.21402468     0.24600
C420        C  0.81929013  0.14134972  0.18927929    -0.23500
C421        C  0.82194963  0.13744399  0.15297828     0.19500
C422        C  0.83228851  0.10658239  0.14173013     0.24600
C423        C  0.84197381  0.08013998  0.16742765    -0.23400
C424        C  0.83902070  0.08424017  0.20338126     0.19500
F425        F  0.84618211  0.05860521  0.22802873    -0.13400
F426        F  0.82577363  0.11720576  0.24941591    -0.15800
F427        F  0.83314357  0.10257064  0.10615649    -0.15800
F428        F  0.81438677  0.16337706  0.12857677    -0.13400
C429        C  0.70779167  0.51760598  0.15264525     0.24600
C430        C  0.74264907  0.51801558  0.17790899    -0.23500
C431        C  0.74889040  0.53226973  0.21348004     0.19500
C432        C  0.72022410  0.53817211  0.22653916     0.24600
C433        C  0.68627078  0.52784788  0.20474007    -0.23400
C434        C  0.67919883  0.52198373  0.16644377     0.19500
F435        F  0.64580267  0.51372831  0.14463903    -0.13400
F436        F  0.70127224  0.50791714  0.11659926    -0.15800
F437        F  0.72646926  0.54665348  0.26298438    -0.15800
F438        F  0.78258022  0.53567510  0.23735906    -0.13400
C439        C  0.71661831  0.41696212  0.09732496     0.24600
C440        C  0.75042245  0.40360393  0.10043858    -0.23500
C441        C  0.75387030  0.36888315  0.09948534     0.19500
C442        C  0.72608198  0.34862955  0.10275408     0.24600
C443        C  0.69750402  0.36303012  0.11277210    -0.23400
C444        C  0.69021800  0.39685189  0.10368224     0.19500
F445        F  0.65791216  0.41043951  0.10086537    -0.13400
F446        F  0.71082882  0.45015397  0.09275140    -0.15800
F447        F  0.72819909  0.31517173  0.09851090    -0.15800
F448        F  0.78504144  0.35477643  0.09884231    -0.13400
C449        C  0.56752995  0.11216591  0.33279771     0.24600
C450        C  0.57594622  0.14063952  0.31595293    -0.23500
C451        C  0.57935331  0.13793285  0.27978354     0.19500
C452        C  0.58088530  0.10654755  0.26391519     0.24600
C453        C  0.57761505  0.07777800  0.28350057    -0.23400
C454        C  0.56778752  0.08090287  0.31631424     0.19500
F455        F  0.56331791  0.05324294  0.33505522    -0.13400
F456        F  0.56356934  0.11413298  0.36732661    -0.15800
F457        F  0.59051941  0.10420633  0.23233730    -0.15800
F458        F  0.58657201  0.16527945  0.26235337    -0.13400
C459        C  0.67977389  0.34663725  0.39385061     0.24600
C460        C  0.64490520  0.33467725  0.38925953    -0.23500
C461        C  0.61577709  0.35631101  0.37436999     0.19500
C462        C  0.62114193  0.38832689  0.36255429     0.24600
C463        C  0.65571361  0.39925999  0.36482753    -0.23400
C464        C  0.68497676  0.37839855  0.38129990     0.19500
F465        F  0.71860941  0.38847265  0.38452647    -0.13400
F466        F  0.70898979  0.32699887  0.40850455    -0.15800
F467        F  0.59208650  0.40774860  0.34632348    -0.15800
F468        F  0.58193247  0.34616542  0.36996468    -0.13400
C469        C  0.62952267  0.23338803  0.23407857     0.24600
C470        C  0.61221930  0.25028470  0.25662147    -0.23500
C471        C  0.59382142  0.27998876  0.24263344     0.19500
C472        C  0.59892765  0.29543926  0.21132509     0.24600
C473        C  0.62494701  0.28304540  0.19605291    -0.23400
C474        C  0.63471501  0.24936920  0.20318446     0.19500
F475        F  0.65093067  0.23250834  0.18157960    -0.13400
F476        F  0.64324694  0.20226670  0.24292245    -0.15800
F477        F  0.57745362  0.32139394  0.19514043    -0.15800
F478        F  0.57164204  0.29440946  0.25952603    -0.13400
C479        C  0.57236343  0.26819506  0.47160827     0.24600
C480        C  0.58813817  0.23692262  0.47033401    -0.23500
C481        C  0.60319200  0.21920007  0.00392230     0.19500
C482        C  0.60695306  0.23451323  0.03843271     0.24600
C483        C  0.59604674  0.26776258  0.03953018    -0.23400
C484        C  0.57690623  0.28376862  0.00607258     0.19500
F485        F  0.56631110  0.31593305  0.00678055    -0.13400
F486        F  0.55862596  0.28618962  0.43969944    -0.15800
F487        F  0.62577740  0.21871076  0.07051115    -0.15800
F488        F  0.61937631  0.18930570  0.00339511    -0.13400
C489        C  0.77797750  0.26455879  0.39734166     0.24600
C490        C  0.74283092  0.26598712  0.37288037    -0.23500
C491        C  0.73551197  0.28282998  0.33860683     0.19500
C492        C  0.76356456  0.29056678  0.32526479     0.24600
C493        C  0.79796617  0.27961591  0.34554575    -0.23400
C494        C  0.80593150  0.27176366  0.38351837     0.19500
F495        F  0.83978108  0.26325065  0.40410093    -0.13400
F496        F  0.78552355  0.25132748  0.43209342    -0.15800
F497        F  0.75629135  0.30091022  0.28925903    -0.15800
F498        F  0.70137314  0.28760973  0.31615020    -0.13400
C499        C  0.75506390  0.09735827  0.44781831     0.24600
C500        C  0.78408241  0.11171657  0.43896494    -0.23500
C501        C  0.79151995  0.14521085  0.44936295     0.19500
C502        C  0.76504154  0.16531372  0.45618187     0.24600
C503        C  0.73081478  0.15244043  0.45089734    -0.23400
C504        C  0.72692589  0.11779727  0.45037155     0.19500
F505        F  0.69505792  0.10408919  0.44852916    -0.13400
F506        F  0.75252723  0.06382594  0.45070502    -0.15800
F507        F  0.77115839  0.19820347  0.46307896    -0.15800
F508        F  0.82390474  0.15847950  0.45278615    -0.13400
C509        C  0.85164068  0.48238873  0.31518779     0.24600
C510        C  0.87042031  0.49835845  0.29366801    -0.23500
C511        C  0.88832086  0.02809772  0.30780394     0.19500
C512        C  0.88229179  0.04401487  0.33859799     0.24600
C513        C  0.85589551  0.03210383  0.35345685    -0.23400
C514        C  0.84567602  0.49870089  0.34565643     0.19500
F515        F  0.82859104  0.48224488  0.36649726    -0.13400
F516        F  0.83736843  0.45169054  0.30581170    -0.15800
F517        F  0.90370774  0.06968027  0.35506021    -0.15800
F518        F  0.91103024  0.04213367  0.29157091    -0.13400
C519        C  0.87755052  0.48258526  0.01186059     0.24600
C520        C  0.88721274  0.01609565  0.01098358    -0.23500
C521        C  0.90642587  0.03183972  0.04456703     0.19500
C522        C  0.91220831  0.01558581  0.07891965     0.24600
C523        C  0.89733707  0.98401965  0.08003240    -0.23400
C524        C  0.88262165  0.46660577  0.04624711     0.19500
F525        F  0.86799487  0.43613955  0.04659882    -0.13400
F526        F  0.85868288  0.46699426  0.97976435    -0.15800
F527        F  0.92647779  0.03301379  0.11110600    -0.15800
F528        F  0.91623828  0.06414906  0.04422527    -0.13400
C529        C  0.80332214  0.09257443  0.91525679     0.31000
C530        C  0.83709402  0.05446385  0.87512872     0.31000
C531        C  0.82212261  0.11239101  0.89097194    -0.05200
C532        C  0.83345330  0.06949937  0.93803389    -0.06000
C533        C  0.77902063  0.06834575  0.88593192    -0.05800
C534        C  0.83892691  0.09271112  0.87053205    -0.05200
C535        C  0.85040253  0.05006304  0.91780573    -0.06000
C536        C  0.79626865  0.04923312  0.86577769    -0.05800
C537        C  0.84904539  0.11385481  0.84669308    -0.31200
N538        N  0.84195652  0.14576028  0.85365478     0.15300
C539        C  0.82398418  0.14519009  0.87925926    -0.31200
H540        H  0.81046853  0.16666366  0.88602401     0.17200
C541        C  0.87367027  0.02892364  0.94295594    -0.30200
N542        N  0.87174768  0.03556592  0.97774252     0.14000
C543        C  0.84724858  0.06021632  0.97498425    -0.30200
C544        C  0.77108307  0.02754543  0.84400569    -0.30500
N545        N  0.73961372  0.03168536  0.85120760     0.14500
H546        H  0.77535542  0.50923630  0.82468875     0.17100
C547        C  0.74357509  0.05749619  0.87541423    -0.30500
H548        H  0.72212541  0.06712609  0.88468984     0.17100
H549        H  0.83851099  0.06919831  0.99787969     0.17100
H550        H  0.85810178  0.10670012  0.82344501     0.17200
H551        H  0.88955781  0.00921865  0.93630176     0.17100
O552        O  0.68463358  0.19290014  0.94554201    -0.80800
C553        C  0.61600236  0.23825584  0.79507390     0.98400
O554        O  0.63275026  0.21166215  0.80616491    -0.69900
O555        O  0.69383595  0.23036141  0.85174583    -0.73500
Al556      Al  0.66112844  0.19746812  0.85449936     1.49000
C557        C  0.71538458  0.24504271  0.87928438     0.93800
O558        O  0.66602845  0.28207389  0.91420001    -0.79700
O559        O  0.58580931  0.22746662  0.90665311    -0.73300
Al560      Al  0.67257899  0.23718554  0.92677753     1.90100
O561        O  0.60973321  0.28477919  0.88035296    -0.72300
O562        O  0.58015388  0.19644190  0.84009309    -0.72200
O563        O  0.60475006  0.25503508  0.81740815    -0.77900
O564        O  0.62825985  0.16401180  0.85484884    -0.76100
O565        O  0.64364126  0.22434996  0.88187031    -1.12200
O566        O  0.69532042  0.17554446  0.89497268    -0.71400
C567        C  0.70077853  0.17361282  0.92973357     0.99300
C568        C  0.63949073  0.29880206  0.89560198     0.95700
Al569      Al  0.59870807  0.23939984  0.86310288     1.55600
O570        O  0.71427212  0.24085975  0.91209456    -0.76000
C571        C  0.59501216  0.16815789  0.83968695     0.99900
C572        C  0.60420433  0.23229486  0.94042390     0.94800
O573        O  0.63714055  0.23753756  0.94966382    -0.81300
C574        C  0.67823027  0.34350555  0.63599276     0.31000
C575        C  0.64410407  0.30534278  0.67518706     0.31000
C576        C  0.66002630  0.36316190  0.66125589    -0.05200
C577        C  0.64760584  0.32152523  0.61269713    -0.06000
C578        C  0.70217026  0.31799375  0.66419779    -0.05800
C579        C  0.64313160  0.34343533  0.68127282    -0.05200
C580        C  0.63049861  0.30206259  0.63250400    -0.06000
C581        C  0.68468747  0.29900676  0.68399989    -0.05800
C582        C  0.63301427  0.36432910  0.70556624    -0.31200
N583        N  0.64000103  0.39621581  0.69902014     0.15300
C584        C  0.65800294  0.39583406  0.67346411    -0.31200
H585        H  0.67114143  0.41741849  0.66685993     0.17200
C586        C  0.60817245  0.28060816  0.60727646    -0.30200
N587        N  0.61070561  0.28716587  0.57280393     0.14000
C588        C  0.63476945  0.31192915  0.57584542    -0.30200
C589        C  0.70927363  0.27624088  0.70483816    -0.30500
N590        N  0.74054706  0.27936786  0.69720394     0.14500
H591        H  0.70474538  0.25791355  0.72385772     0.17100
C592        C  0.73716755  0.30562516  0.67370010    -0.30500
H593        H  0.75871348  0.31465783  0.66440321     0.17100
H594        H  0.64413576  0.32053901  0.55331498     0.17100
H595        H  0.62354300  0.35706323  0.72844052     0.17200
H596        H  0.59282146  0.26057946  0.61372911     0.17100
O597        O  0.79810231  0.44203157  0.60467446    -0.80800
C598        C  0.86849490  0.48528862  0.75587180     0.98600
O599        O  0.85134645  0.45923590  0.74439685    -0.69900
O600        O  0.79138460  0.48151588  0.69870966    -0.73500
Al601      Al  0.82250424  0.44685834  0.69569714     1.49000
C602        C  0.77026835  0.49694718  0.67129850     0.93800
O603        O  0.82135308  0.03107376  0.63538055    -0.79700
O604        O  0.89946354  0.47448654  0.64371174    -0.73300
Al605      Al  0.81270240  0.48611565  0.62333075     1.90100
O606        O  0.87688914  0.03113140  0.67256434    -0.72300
O607        O  0.90341047  0.44150281  0.70857280    -0.72200
O608        O  0.88148088  0.50077585  0.73422189    -0.77900
O609        O  0.85369278  0.41176789  0.69485059    -0.76100
O610        O  0.84113577  0.47250773  0.66844361    -1.12200
O611        O  0.78716242  0.42651380  0.65554278    -0.71400
C612        C  0.78126612  0.42406008  0.62082296     0.99300
C613        C  0.84789209  0.04614488  0.65623694     0.95700
Al614      Al  0.88662458  0.48553710  0.68773087     1.55600
O615        O  0.77145056  0.99284056  0.63843552    -0.76000
C616        C  0.88727985  0.41404708  0.70847224     0.99900
C617        C  0.88112225  0.47895608  0.60982659     0.94800
O618        O  0.84803709  0.98380868  0.60035068    -0.81300
O619        O  0.57351956  0.45949057  0.75062800    -0.80800
C620        C  0.70860723  0.51094941  0.83541648     0.98600
O621        O  0.68145023  0.51169577  0.84680223    -0.69900
O622        O  0.62358469  0.03915835  0.80436843    -0.73500
Al623      Al  0.63223078  0.49586977  0.82298257     1.49000
C624        C  0.59580110  0.04679046  0.77858562     0.93800
O625        O  0.63601824  0.01604889  0.72277642    -0.79700
O626        O  0.65441405  0.42177747  0.75701968    -0.73300
Al627      Al  0.60581717  0.48736124  0.73732910     1.90100
O628        O  0.68262260  0.48150474  0.74030368    -0.72300
O629        O  0.68141514  0.43253420  0.82748825    -0.72200
O630        O  0.70933630  0.49143258  0.80977971    -0.77900
O631        O  0.63917711  0.45441401  0.84656836    -0.76100
O632        O  0.63918627  0.48046795  0.78177030    -1.12200
O633        O  0.58158643  0.48348886  0.80581282    -0.71400
C634        C  0.56233251  0.46660639  0.77790805     0.99300
C635        C  0.66716054  0.50781112  0.72381356     0.95700
Al636      Al  0.67881605  0.45855878  0.78363526     1.55600
O637        O  0.58327067  0.02694195  0.75151765    -0.76000
C638        C  0.65983540  0.43068056  0.84618936     0.99900
C639        C  0.63758185  0.42364278  0.72287646     0.94800
O640        O  0.61964576  0.44980488  0.71019684    -0.81300
O641        O  0.90570079  0.20418857  0.79695899    -0.80800
C642        C  0.77104645  0.25779744  0.71296272     0.98600
O643        O  0.79737392  0.25617592  0.70033329    -0.69900
O644        O  0.85664146  0.28266197  0.73936365    -0.73500
Al645      Al  0.84623250  0.23894295  0.72363477     1.49000
C646        C  0.88455113  0.29065806  0.76460169     0.93800
O647        O  0.84598775  0.26518845  0.82440836    -0.79700
O648        O  0.82377779  0.17062409  0.79535808    -0.73300
Al649      Al  0.87468801  0.23423288  0.80991316     1.90100
O650        O  0.79836529  0.23258375  0.80958147    -0.72300
O651        O  0.79587561  0.17856820  0.72497334    -0.72200
O652        O  0.77063292  0.23997861  0.73995472    -0.77900
O653        O  0.83706213  0.19661718  0.70205503    -0.76100
O654        O  0.84020501  0.22657536  0.76650978    -1.12200
O655        O  0.89666703  0.22507405  0.74030185    -0.71400
C656        C  0.91663822  0.20975828  0.76926105     0.99300
C657        C  0.81503846  0.25856779  0.82495536     0.95700
Al658      Al  0.80032549  0.20704997  0.76722814     1.55600
O659        O  0.89700278  0.27199872  0.79284724    -0.76000
C660        C  0.81594976  0.17437603  0.70488831     0.99900
C661        C  0.84261296  0.17283215  0.82879947     0.94800
O662        O  0.86151596  0.19859808  0.83970183    -0.81300
C663        C  0.16945405  0.08303813  0.63713588     0.31000
C664        C  0.13714904  0.04515642  0.67822819     0.31000
C665        C  0.15408620  0.10267952  0.66477250    -0.05200
C666        C  0.13708029  0.06241116  0.61478125    -0.06000
C667        C  0.19370498  0.05649989  0.66352131    -0.05800
C668        C  0.13811292  0.08305392  0.68565825    -0.05200
C669        C  0.12085053  0.04312308  0.63562582    -0.06000
C670        C  0.17719330  0.03754632  0.68428419    -0.05800
C671        C  0.13031354  0.10366281  0.71158788    -0.31200
N672        N  0.13797050  0.13546439  0.70554470     0.15300
C673        C  0.15394031  0.13518347  0.67825039    -0.31200
H674        H  0.16700484  0.15659882  0.67115544     0.17200
C675        C  0.09791885  0.02155865  0.61117780    -0.30200
N676        N  0.09917057  0.02775495  0.57613661     0.14000
C677        C  0.12307132  0.05249580  0.57810233    -0.30200
C678        C  0.20264275  0.01536619  0.70520713    -0.30500
N679        N  0.23351057  0.01899077  0.69680235     0.14500
H680        H  0.19917818  0.49754788  0.72529132     0.17100
C681        C  0.22892077  0.04482663  0.67255303    -0.30500
H682        H  0.25005246  0.05446464  0.66298834     0.17100
H683        H  0.13235181  0.06015408  0.55516323     0.17100
H684        H  0.12191399  0.09615626  0.73510697     0.17200
H685        H  0.08389510  0.00100418  0.61869005     0.17100
O686        O  0.28871995  0.18194986  0.60511840    -0.80800
C687        C  0.36750376  0.22698202  0.75306526     0.98600
O688        O  0.35004123  0.20092780  0.74260637    -0.69900
O689        O  0.28905167  0.22444346  0.70036774    -0.73500
Al690      Al  0.31797213  0.18896597  0.69531846     1.49000
C691        C  0.26733106  0.24024256  0.67367327     0.93800
O692        O  0.31306675  0.27131627  0.63124398    -0.79700
O693        O  0.39017775  0.21589487  0.63761480    -0.73300
Al694      Al  0.30409466  0.22636104  0.62146659     1.90100
O695        O  0.36878468  0.27321909  0.66682937    -0.72300
O696        O  0.39746692  0.18344204  0.70367008    -0.72200
O697        O  0.37701213  0.24354357  0.72960788    -0.77900
O698        O  0.34780776  0.15357052  0.69197436    -0.76100
O699        O  0.33448051  0.21395088  0.66585036    -1.12200
O700        O  0.27973494  0.16889678  0.65762665    -0.71400
C701        C  0.27228924  0.16532581  0.62283550     0.99300
C702        C  0.33925253  0.28760466  0.65077173     0.95700
Al703      Al  0.37976058  0.22757452  0.68256827     1.55600
O704        O  0.26514364  0.23442142  0.63998991    -0.76000
C705        C  0.38150541  0.15594476  0.70460395     0.99900
C706        C  0.37050598  0.21876426  0.60399154     0.94800
O707        O  0.33733481  0.22272234  0.59578691    -0.81300
C708        C  0.30689054  0.32995761  0.91111693     0.31000
C709        C  0.34320263  0.29158059  0.87474669     0.31000
C710        C  0.31735685  0.34740799  0.87961085    -0.05200
C711        C  0.34327684  0.31662485  0.93622770    -0.06000
C712        C  0.28868808  0.29712896  0.89385365    -0.05800
C713        C  0.33513154  0.32790260  0.86056476    -0.05200
C714        C  0.36194587  0.29642573  0.91727218    -0.06000
C715        C  0.30562608  0.27885058  0.87326854    -0.05800
C716        C  0.34550113  0.34922568  0.83681433    -0.31200
N717        N  0.33818190  0.38115175  0.84388433     0.15300
C718        C  0.32052060  0.38035587  0.86969961    -0.31200
H719        H  0.31044611  0.40209312  0.88032520     0.17200
C720        C  0.38140998  0.27345387  0.94313341    -0.30200
N721        N  0.37654725  0.27936367  0.97661389     0.14000
C722        C  0.35263628  0.30459088  0.97239013    -0.30200
C723        C  0.28147545  0.25428317  0.85544469    -0.30500
N724        N  0.25195248  0.25594411  0.86698893     0.14500
H725        H  0.28420559  0.23746569  0.83396908     0.17100
C726        C  0.25692620  0.28112052  0.89178845    -0.30500
H727        H  0.23745741  0.28861326  0.90514744     0.17100
H728        H  0.33896512  0.31040321  0.99254055     0.17100
H729        H  0.35742696  0.34243021  0.81556021     0.17200
H730        H  0.39417778  0.25128732  0.93673343     0.17100
O731        O  0.19014321  0.43425555  0.95112541    -0.80800
C732        C  0.11573014  0.48299749  0.80333430     0.98600
O733        O  0.13627280  0.45912811  0.81533763    -0.69900
O734        O  0.19288432  0.48745190  0.86246723    -0.73500
Al735      Al  0.16671038  0.44907127  0.86333552     1.49000
C736        C  0.21448408  0.50003646  0.89174059     0.93800
O737        O  0.16031558  0.02392558  0.93472627    -0.79700
O738        O  0.08686287  0.47031746  0.91554968    -0.73300
Al739      Al  0.17268678  0.47918805  0.93917503     1.90100
O740        O  0.10934137  0.02673949  0.88889501    -0.72300
O741        O  0.08682420  0.43690717  0.85246356    -0.72200
O742        O  0.10340283  0.49835717  0.82567955    -0.77900
O743        O  0.13953506  0.41099392  0.86298814    -0.76100
O744        O  0.14582342  0.46982493  0.89217988    -1.12200
O745        O  0.20591630  0.43088082  0.90087311    -0.71400
C746        C  0.20848167  0.42072986  0.93307177     0.99300
C747        C  0.13615357  0.04052036  0.91186972     0.95700
Al748      Al  0.10023504  0.48177515  0.87266740     1.55600
O749        O  0.21309988  0.99304777  0.92426649    -0.76000
C750        C  0.10556955  0.41082422  0.85178765     0.99900
C751        C  0.10418029  0.46870580  0.94992104     0.94800
O752        O  0.13767124  0.96933666  0.96129141    -0.81300
O753        O  0.07924208  0.19950101  0.76354743    -0.80800
C754        C  0.21890117  0.23845030  0.84999912     0.98600
O755        O  0.19146013  0.24272498  0.86048606    -0.69900
O756        O  0.13601556  0.27536761  0.81964433    -0.73500
Al757      Al  0.14075552  0.23155499  0.83667291     1.49000
C758        C  0.10758348  0.28492882  0.79609516     0.93800
O759        O  0.14377448  0.25388597  0.73832421    -0.79700
O760        O  0.15444099  0.15786152  0.76516942    -0.73300
Al761      Al  0.11234026  0.22644842  0.75118582     1.90100
O762        O  0.18833186  0.21668977  0.75271949    -0.72300
O763        O  0.18254402  0.16393866  0.83632464    -0.72200
O764        O  0.21738604  0.21969753  0.82311700    -0.77900
O765        O  0.14481764  0.19047078  0.85879467    -0.76100
O766        O  0.14569629  0.21624514  0.79466134    -1.12200
O767        O  0.08840033  0.22267240  0.81947606    -0.71400
C768        C  0.06806147  0.20748907  0.79054360     0.99300
C769        C  0.17404046  0.24420033  0.73800923     0.95700
Al770      Al  0.18276789  0.19140746  0.79434849     1.55600
O771        O  0.09258304  0.26649889  0.76834268    -0.76000
C772        C  0.16275605  0.16512514  0.85711649     0.99900
C773        C  0.13820488  0.16216575  0.73122820     0.94800
O774        O  0.12290243  0.18988782  0.72057587    -0.81300
O775        O  0.40279637  0.44802050  0.79216880    -0.80800
C776        C  0.26503948  0.49857708  0.71253769     0.98600
O777        O  0.29099988  0.49797604  0.69926093    -0.69900
O778        O  0.34771527  0.02745522  0.74150779    -0.73500
Al779      Al  0.34120785  0.48418851  0.72262019     1.49000
C780        C  0.37642085  0.03517152  0.76587309     0.93800
O781        O  0.34092459  0.00160658  0.82559715    -0.79700
O782        O  0.32222341  0.40881956  0.78722614    -0.73300
Al783      Al  0.37049281  0.47443796  0.80792214     1.90100
O784        O  0.29467012  0.46735547  0.80892755    -0.72300
O785        O  0.29276492  0.42212260  0.71768819    -0.72200
O786        O  0.26600309  0.48059865  0.73991830    -0.77900
O787        O  0.33635104  0.44252230  0.70012220    -0.76100
O788        O  0.33600581  0.46830590  0.76436782    -1.12200
O789        O  0.39260677  0.47425756  0.73813145    -0.71400
C790        C  0.41335910  0.45766476  0.76538674     0.99300
C791        C  0.31091013  0.49253732  0.82692781     0.95700
Al792      Al  0.29693469  0.44647343  0.76338881     1.55600
O793        O  0.39034289  0.01552980  0.79308934    -0.76000
C794        C  0.31551351  0.41920930  0.70036528     0.99900
C795        C  0.34051027  0.40929188  0.82098546     0.94800
O796        O  0.35887886  0.43501665  0.83424821    -0.81300
C797        C  0.08639542  0.34373464  0.78080906     0.24600
C798        C  0.09165050  0.31604349  0.80458119    -0.23500
C799        C  0.09034425  0.32028845  0.84137345     0.19500
C800        C  0.08961506  0.35213715  0.85601642     0.24600
C801        C  0.08894001  0.38007432  0.83370282    -0.23400
C802        C  0.08487533  0.37574329  0.79535715     0.19500
F803        F  0.08447420  0.40265552  0.77340317    -0.13400
F804        F  0.08732465  0.34025116  0.74519882    -0.15800
F805        F  0.09410935  0.35576569  0.89313396    -0.15800
F806        F  0.09390166  0.29364306  0.86449162    -0.13400
C807        C  0.17843092  0.08679637  0.91466474     0.24600
C808        C  0.14280746  0.07603201  0.90788625    -0.23500
C809        C  0.11458824  0.09719884  0.88905979     0.19500
C810        C  0.12166335  0.12703243  0.87415786     0.24600
C811        C  0.15699170  0.13584561  0.87734090    -0.23400
C812        C  0.18537991  0.11625684  0.89873536     0.19500
F813        F  0.21965003  0.12518807  0.90338640    -0.13400
F814        F  0.20666763  0.06755813  0.93384709    -0.15800
F815        F  0.09373914  0.14603064  0.85387207    -0.15800
F816        F  0.08014299  0.08801589  0.88292228    -0.13400
C817        C  0.23918514  0.53440941  0.85262965     0.24600
C818        C  0.24458943  0.51829704  0.88714086    -0.23500
C819        C  0.27878614  0.50646631  0.90728925     0.19500
C820        C  0.30381864  0.50198315  0.88853718     0.24600
C821        C  0.29464326  0.51062970  0.85064070    -0.23400
C822        C  0.26401606  0.52967559  0.83377123     0.19500
F823        F  0.25579671  0.53915643  0.79735863    -0.13400
F824        F  0.20686791  0.54802855  0.83397290    -0.15800
F825        F  0.33413218  0.48432251  0.90519532    -0.15800
F826        F  0.28513762  0.49252010  0.94166987    -0.13400
C827        C  0.24538417  0.35249226  0.90351209     0.24600
C828        C  0.28170619  0.35136692  0.92546788    -0.23500
C829        C  0.29240670  0.37207066  0.95739650     0.19500
C830        C  0.26695614  0.39323895  0.96559812     0.24600
C831        C  0.23038580  0.39070138  0.94475158    -0.23400
C832        C  0.22002018  0.36585160  0.91765184     0.19500
F833        F  0.18506182  0.36221095  0.89741730    -0.13400
F834        F  0.23422264  0.34203293  0.86727471    -0.15800
F835        F  0.27823789  0.41810186  0.99098275    -0.15800
F836        F  0.32747197  0.37529515  0.97715477    -0.13400
C837        C  0.40182505  0.12478763  0.76388271     0.24600
C838        C  0.40030146  0.12702760  0.72592047    -0.23500
C839        C  0.40180267  0.09776189  0.70629111     0.19500
C840        C  0.39954527  0.06686900  0.72237208     0.24600
C841        C  0.39470645  0.06488665  0.75793917    -0.23400
C842        C  0.39837944  0.09380275  0.77968431     0.19500
F843        F  0.39399118  0.09262576  0.81406326    -0.13400
F844        F  0.40108660  0.15289654  0.78374532    -0.15800
F845        F  0.39746188  0.03906018  0.70120775    -0.15800
F846        F  0.40029922  0.09924178  0.66974752    -0.13400
C847        C  0.29803466  0.33527656  0.65233248     0.24600
C848        C  0.33327068  0.32330150  0.65782456    -0.23500
C849        C  0.36200834  0.34437052  0.67503595     0.19500
C850        C  0.35582100  0.37608536  0.68728926     0.24600
C851        C  0.32075465  0.38731281  0.68310553    -0.23400
C852        C  0.29199030  0.36672893  0.66532507     0.19500
F853        F  0.25800887  0.37681875  0.66107858    -0.13400
F854        F  0.26916971  0.31594004  0.63626620    -0.15800
F855        F  0.38443966  0.39494900  0.70564224    -0.15800
F856        F  0.39620764  0.33391010  0.68133316    -0.13400
C857        C  0.39101535  0.26901969  0.80494700     0.24600
C858        C  0.37399961  0.23858507  0.79214774    -0.23500
C859        C  0.36011255  0.22052180  0.81659551     0.19500
C860        C  0.35629524  0.23582751  0.84848310     0.24600
C861        C  0.36401401  0.26983785  0.85490366    -0.23400
C862        C  0.38760479  0.28363882  0.83757869     0.19500
F863        F  0.40689973  0.31115383  0.85191661    -0.13400
F864        F  0.40935318  0.28528983  0.78524313    -0.15800
F865        F  0.34412441  0.21769179  0.87234779    -0.15800
F866        F  0.34803183  0.18891832  0.80862682    -0.13400
C867        C  0.36633515  0.21027284  0.53766454     0.24600
C868        C  0.38552583  0.22305181  0.57310764    -0.23500
C869        C  0.40862012  0.25006425  0.57527021     0.19500
C870        C  0.40807512  0.26717860  0.54267520     0.24600
C871        C  0.38536991  0.25683361  0.50772579    -0.23400
C872        C  0.36620737  0.22715393  0.50513011     0.19500
F873        F  0.34389144  0.21701788  0.47151596    -0.13400
F874        F  0.34384214  0.18422903  0.53484739    -0.15800
F875        F  0.42686549  0.29578224  0.04544313    -0.15800
F876        F  0.42717966  0.26315670  0.60905449    -0.13400
C877        C  0.25191761  0.27563157  0.71916324     0.24600
C878        C  0.24250171  0.26321600  0.68244224    -0.23500
C879        C  0.20645059  0.26202151  0.66067587     0.19500
C880        C  0.18087820  0.26188955  0.67898762     0.24600
C881        C  0.19225523  0.26401851  0.71809891    -0.23400
C882        C  0.22653932  0.27512940  0.73756763     0.19500
F883        F  0.23673066  0.27955822  0.77525388    -0.13400
F884        F  0.28666608  0.28098415  0.73915769    -0.15800
F885        F  0.14682600  0.25308663  0.65988153    -0.15800
F886        F  0.19667234  0.25422087  0.62372969    -0.13400
C887        C  0.21640954  0.08949782  0.60287724     0.24600
C888        C  0.18757130  0.10296281  0.61315463    -0.23500
C889        C  0.18034408  0.13703428  0.60600502     0.19500
C890        C  0.20724014  0.15804650  0.60241725     0.24600
C891        C  0.24085764  0.14490665  0.60418937    -0.23400
C892        C  0.24422946  0.11035788  0.60090841     0.19500
F893        F  0.27541101  0.09682037  0.59948941    -0.13400
F894        F  0.21874949  0.05626233  0.59721619    -0.15800
F895        F  0.20196559  0.19144963  0.60181430    -0.15800
F896        F  0.14793808  0.15010585  0.60380412    -0.13400
C897        C  0.09364633  0.03684543  0.71654342     0.24600
C898        C  0.11860460  0.02357212  0.70028751    -0.23500
C899        C  0.12864562  0.49013688  0.70841315     0.19500
C900        C  0.12505649  0.47544220  0.74068134     0.24600
C901        C  0.10922413  0.49346330  0.76384223    -0.23400
C902        C  0.09030528  0.02275944  0.74937256     0.19500
F903        F  0.06992852  0.03840402  0.76754362    -0.13400
F904        F  0.07247204  0.06309536  0.70068127    -0.15800
F905        F  0.13908318  0.44451005  0.75026103    -0.15800
F906        F  0.14356733  0.47230633  0.68634978    -0.13400
C907        C  0.10034269  0.47368031  0.54612987     0.24600
C908        C  0.08650337  0.00618765  0.54433769    -0.23500
C909        C  0.06739938  0.01971551  0.50937996     0.19500
C910        C  0.06651997  0.00296853  0.97645869     0.24600
C911        C  0.08613254  0.97321220  0.97840051    -0.23400
C912        C  0.10041355  0.45733184  0.51325372     0.19500
F913        F  0.11909803  0.42842107  0.51580771    -0.13400
F914        F  0.11851066  0.45997380  0.57973230    -0.15800
F915        F  0.05234261  0.01891233  0.94319291    -0.15800
F916        F  0.05338693  0.05091009  0.50721789    -0.13400
C917        C  0.00486449  0.20947393  0.74911501     0.24600
C918        C  0.02941798  0.20318646  0.78488974    -0.23500
C919        C  0.01629591  0.19504806  0.81435082     0.19500
C920        C  0.97936804  0.19396199  0.80839018     0.24600
C921        C  0.95475718  0.20251491  0.77310492    -0.23400
C922        C  0.96812655  0.20936857  0.74335959     0.19500
F923        F  0.94583249  0.21769126  0.70892591    -0.13400
F924        F  0.01640370  0.21823126  0.71999179    -0.15800
F925        F  0.96796967  0.18620821  0.83788043    -0.15800
F926        F  0.03910541  0.18882573  0.84910985    -0.13400
C927        C  0.49895738  0.45368390  0.73990458     0.24600
C928        C  0.52497466  0.45821858  0.77526301    -0.23500
C929        C  0.51392610  0.45863992  0.80736053     0.19500
C930        C  0.47772598  0.45623672  0.80413474     0.24600
C931        C  0.45159753  0.45367164  0.76866152    -0.23400
C932        C  0.46265483  0.45182655  0.73667139     0.19500
F933        F  0.43821935  0.44936939  0.70208745    -0.13400
F934        F  0.50822634  0.45326357  0.70802870    -0.15800
F935        F  0.46814376  0.45911538  0.83570251    -0.15800
F936        F  0.53799893  0.46271989  0.84192072    -0.13400
C937        C  0.90983260  0.35659837  0.70889576     0.24600
C938        C  0.90585020  0.38480803  0.72913304    -0.23500
C939        C  0.90573575  0.38101058  0.76639968     0.19500
C940        C  0.90387592  0.34918910  0.78096431     0.24600
C941        C  0.90244985  0.32112709  0.75840285    -0.23400
C942        C  0.90836535  0.32487106  0.72354527     0.19500
F943        F  0.90810159  0.29784276  0.70166775    -0.13400
F944        F  0.91015444  0.35972356  0.67304837    -0.15800
F945        F  0.89826620  0.34613546  0.81464420    -0.15800
F946        F  0.90172944  0.40806908  0.78648174    -0.13400
C947        C  0.82737044  0.11424338  0.71402466     0.24600
C948        C  0.81929015  0.14134976  0.68927927    -0.23500
C949        C  0.82194961  0.13744402  0.65297825     0.19500
C950        C  0.83228847  0.10658242  0.64173009     0.24600
C951        C  0.84197377  0.08013999  0.66742760    -0.23400
C952        C  0.83902067  0.08424019  0.70338122     0.19500
F953        F  0.84618204  0.05860522  0.72802867    -0.13400
F954        F  0.82577368  0.11720581  0.74941590    -0.15800
F955        F  0.83314350  0.10257066  0.60615644    -0.15800
F956        F  0.81438673  0.16337708  0.62857673    -0.13400
C957        C  0.70779162  0.51760596  0.65264522     0.24600
C958        C  0.74264904  0.51801557  0.67790894    -0.23500
C959        C  0.74889039  0.53226973  0.71347999     0.19500
C960        C  0.72022412  0.53817209  0.72653915     0.24600
C961        C  0.68627078  0.52784786  0.70474008    -0.23400
C962        C  0.67919880  0.52198371  0.66644378     0.19500
F963        F  0.64580264  0.51372828  0.64463906    -0.13400
F964        F  0.70127217  0.50791710  0.61659923    -0.15800
F965        F  0.72646930  0.54665345  0.76298437    -0.15800
F966        F  0.78258022  0.53567509  0.73735898    -0.13400
C967        C  0.71661831  0.41696208  0.59732492     0.24600
C968        C  0.75042245  0.40360389  0.60043855    -0.23500
C969        C  0.75387031  0.36888310  0.59948535     0.19500
C970        C  0.72608199  0.34862951  0.60275408     0.24600
C971        C  0.69750402  0.36303009  0.61277210    -0.23400
C972        C  0.69021802  0.39685186  0.60368223     0.19500
F973        F  0.65791219  0.41043949  0.60086540    -0.13400
F974        F  0.71082883  0.45015393  0.59275133    -0.15800
F975        F  0.72819910  0.31517169  0.59851092    -0.15800
F976        F  0.78504147  0.35477638  0.59884237    -0.13400
C977        C  0.56752992  0.11216586  0.83279774     0.24600
C978        C  0.57594618  0.14063948  0.81595297    -0.23500
C979        C  0.57935326  0.13793282  0.77978357     0.19500
C980        C  0.58088526  0.10654753  0.76391522     0.24600
C981        C  0.57761501  0.07777796  0.78350059    -0.23400
C982        C  0.56778747  0.08090282  0.81631426     0.19500
F983        F  0.56331783  0.05324289  0.83505521    -0.13400
F984        F  0.56356931  0.11413292  0.86732664    -0.15800
F985        F  0.59051938  0.10420632  0.73233734    -0.15800
F986        F  0.58657195  0.16527943  0.76235341    -0.13400
C987        C  0.67977384  0.34663723  0.89385062     0.24600
C988        C  0.64490515  0.33467723  0.88925952    -0.23500
C989        C  0.61577704  0.35631098  0.87436995     0.19500
C990        C  0.62114188  0.38832685  0.86255424     0.24600
C991        C  0.65571357  0.39925996  0.86482750    -0.23400
C992        C  0.68497672  0.37839852  0.88129989     0.19500
F993        F  0.71860937  0.38847261  0.88452645    -0.13400
F994        F  0.70898975  0.32699886  0.90850462    -0.15800
F995        F  0.59208646  0.40774857  0.84632342    -0.15800
F996        F  0.58193241  0.34616538  0.86996460    -0.13400
C997        C  0.62952263  0.23338801  0.73407856     0.24600
C998        C  0.61221924  0.25028468  0.75662144    -0.23500
C999        C  0.59382135  0.27998873  0.74263338     0.19500
C1000       C  0.59892759  0.29543922  0.71132503     0.24600
C1001       C  0.62494698  0.28304537  0.69605289    -0.23400
C1002       C  0.63471499  0.24936918  0.70318445     0.19500
F1003       F  0.65093068  0.23250831  0.68157962    -0.13400
F1004       F  0.64324690  0.20226668  0.74292245    -0.15800
F1005       F  0.57745355  0.32139388  0.69514033    -0.15800
F1006       F  0.57164194  0.29440941  0.75952595    -0.13400
C1007       C  0.57236341  0.26819508  0.97160827     0.24600
C1008       C  0.58813813  0.23692262  0.97033403    -0.23500
C1009       C  0.60319206  0.21920006  0.50392228     0.19500
C1010       C  0.60695310  0.23451320  0.53843269     0.24600
C1011       C  0.59604675  0.26776254  0.53953018    -0.23400
C1012       C  0.57690622  0.28376858  0.50607259     0.19500
F1013       F  0.56631106  0.31593299  0.50678058    -0.13400
F1014       F  0.55862591  0.28618961  0.93969942    -0.15800
F1015       F  0.62577748  0.21871074  0.57051113    -0.15800
F1016       F  0.61937641  0.18930572  0.50339508    -0.13400
C1017       C  0.77797749  0.26455873  0.89734168     0.24600
C1018       C  0.74283091  0.26598708  0.87288037    -0.23500
C1019       C  0.73551199  0.28282996  0.83860684     0.19500
C1020       C  0.76356459  0.29056679  0.82526484     0.24600
C1021       C  0.79796618  0.27961589  0.84554581    -0.23400
C1022       C  0.80593149  0.27176361  0.88351841     0.19500
F1023       F  0.83978108  0.26325057  0.90410098    -0.13400
F1024       F  0.78552352  0.25132739  0.93209342    -0.15800
F1025       F  0.75629141  0.30091027  0.78925910    -0.15800
F1026       F  0.70137317  0.28760971  0.81615019    -0.13400
C1027       C  0.75506392  0.09735828  0.94781835     0.24600
C1028       C  0.78408241  0.11171660  0.93896494    -0.23500
C1029       C  0.79151993  0.14521088  0.94936292     0.19500
C1030       C  0.76504152  0.16531374  0.95618185     0.24600
C1031       C  0.73081477  0.15244044  0.95089734    -0.23400
C1032       C  0.72692590  0.11779728  0.95037159     0.19500
F1033       F  0.69505796  0.10408918  0.94852929    -0.13400
F1034       F  0.75252727  0.06382595  0.95070508    -0.15800
F1035       F  0.77115835  0.19820349  0.96307893    -0.15800
F1036       F  0.82390470  0.15847955  0.95278609    -0.13400
C1037       C  0.85164061  0.48238872  0.81518775     0.24600
C1038       C  0.87042025  0.49835844  0.79366798    -0.23500
C1039       C  0.88832081  0.02809776  0.80780390     0.19500
C1040       C  0.88229177  0.04401489  0.83859798     0.24600
C1041       C  0.85589550  0.03210384  0.85345685    -0.23400
C1042       C  0.84567596  0.49870087  0.84565640     0.19500
F1043       F  0.82859098  0.48224486  0.86649723    -0.13400
F1044       F  0.83736833  0.45169055  0.80581164    -0.15800
F1045       F  0.90370773  0.06968029  0.85506020    -0.15800
F1046       F  0.91103014  0.04213375  0.79157083    -0.13400
C1047       C  0.87755044  0.48258518  0.51186057     0.24600
C1048       C  0.88721274  0.01609563  0.51098357    -0.23500
C1049       C  0.90642590  0.03183967  0.54456701     0.19500
C1050       C  0.91220834  0.01558575  0.57891963     0.24600
C1051       C  0.89733706  0.98401961  0.58003237    -0.23400
C1052       C  0.88262157  0.46660569  0.54624709     0.19500
F1053       F  0.86799476  0.43613949  0.54659880    -0.13400
F1054       F  0.85868277  0.46699420  0.47976433    -0.15800
F1055       F  0.92647788  0.03301370  0.61110599    -0.15800
F1056       F  0.91623836  0.06414900  0.54422527    -0.13400
C1057       C  0.80332215  0.59257444  0.41525679     0.31000
C1058       C  0.83709404  0.55446386  0.37512873     0.31000
C1059       C  0.82212266  0.61239102  0.39097196    -0.05200
C1060       C  0.83345329  0.56949937  0.43803388    -0.06000
C1061       C  0.77902064  0.56834578  0.38593190    -0.05800
C1062       C  0.83892695  0.59271113  0.37053208    -0.05200
C1063       C  0.85040252  0.55006303  0.41780573    -0.06000
C1064       C  0.79626866  0.54923315  0.36577767    -0.05800
C1065       C  0.84904543  0.61385482  0.34669310    -0.31200
N1066       N  0.84195656  0.64576030  0.35365480     0.15300
C1067       C  0.82398423  0.64519011  0.37925929    -0.31200
H1068       H  0.81046858  0.66666368  0.38602404     0.17200
C1069       C  0.87367025  0.52892363  0.44295593    -0.30200
N1070       N  0.87174765  0.53556590  0.47774251     0.14000
C1071       C  0.84724857  0.56021631  0.47498424    -0.30200
C1072       C  0.77108309  0.52754545  0.34400567    -0.30500
N1073       N  0.73961373  0.53168538  0.35120757     0.14500
H1074       H  0.77535545  0.00923629  0.32468874     0.17100
C1075       C  0.74357510  0.55749622  0.37541419    -0.30500
H1076       H  0.72212542  0.56712612  0.38468980     0.17100
H1077       H  0.83851097  0.56919829  0.49787968     0.17100
H1078       H  0.85810181  0.60670014  0.32344502     0.17200
H1079       H  0.88955779  0.50921863  0.43630175     0.17100
O1080       O  0.68463363  0.69290018  0.44554203    -0.80800
C1081       C  0.61600245  0.73825586  0.29507392     0.98400
O1082       O  0.63275034  0.71166217  0.30616493    -0.69900
O1083       O  0.69383602  0.73036143  0.35174587    -0.73500
Al1084     Al  0.66112851  0.69746814  0.35449938     1.49000
C1085       C  0.71538464  0.74504275  0.37928441     0.93800
O1086       O  0.66602850  0.78207392  0.41420003    -0.79700
O1087       O  0.58580935  0.72746666  0.40665308    -0.73300
Al1088     Al  0.67257904  0.73718557  0.42677755     1.90100
O1089       O  0.60973327  0.78477922  0.38035295    -0.72300
O1090       O  0.58015395  0.69644194  0.34009308    -0.72200
O1091       O  0.60475016  0.75503510  0.31740816    -0.77900
O1092       O  0.62825992  0.66401183  0.35484885    -0.76100
O1093       O  0.64364132  0.72434999  0.38187032    -1.12200
O1094       O  0.69532047  0.67554449  0.39497271    -0.71400
C1095       C  0.70077857  0.67361286  0.42973360     0.99300
C1096       C  0.63949078  0.79880209  0.39560199     0.95700
Al1097     Al  0.59870814  0.73939987  0.36310288     1.55600
O1098       O  0.71427218  0.74085979  0.41209459    -0.76000
C1099       C  0.59501222  0.66815792  0.33968694     0.99900
C1100       C  0.60420435  0.73229490  0.44042387     0.94800
O1101       O  0.63714058  0.73753759  0.44966382    -0.81300
C1102       C  0.67823029  0.84350557  0.13599276     0.31000
C1103       C  0.64410410  0.80534281  0.17518707     0.31000
C1104       C  0.66002631  0.86316193  0.16125589    -0.05200
C1105       C  0.64760585  0.82152525  0.11269714    -0.06000
C1106       C  0.70217028  0.81799377  0.16419778    -0.05800
C1107       C  0.64313163  0.84343535  0.18127283    -0.05200
C1108       C  0.63049863  0.80206261  0.13250401    -0.06000
C1109       C  0.68468749  0.79900679  0.18399989    -0.05800
C1110       C  0.63301430  0.86432912  0.20556625    -0.31200
N1111       N  0.64000104  0.89621584  0.19902013     0.15300
C1112       C  0.65800293  0.89583408  0.17346410    -0.31200
H1113       H  0.67114141  0.91741853  0.16685989     0.17200
C1114       C  0.60817248  0.78060817  0.10727647    -0.30200
N1115       N  0.61070562  0.78716588  0.07280394     0.14000
C1116       C  0.63476947  0.81192917  0.07584542    -0.30200
C1117       C  0.70927365  0.77624091  0.20483816    -0.30500
N1118       N  0.74054708  0.77936787  0.19720392     0.14500
H1119       H  0.70474541  0.75791357  0.22385772     0.17100
C1120       C  0.73716757  0.80562518  0.17370009    -0.30500
H1121       H  0.75871350  0.81465784  0.16440319     0.17100
H1122       H  0.64413576  0.82053904  0.05331498     0.17100
H1123       H  0.62354305  0.85706325  0.22844054     0.17200
H1124       H  0.59282150  0.76057947  0.11372912     0.17100
O1125       O  0.79810232  0.94203159  0.10467449    -0.80800
C1126       C  0.86849493  0.98528860  0.25587182     0.98600
O1127       O  0.85134651  0.95923587  0.24439688    -0.69900
O1128       O  0.79138464  0.98151590  0.19870973    -0.73500
Al1129     Al  0.82250427  0.94685834  0.19569716     1.49000
C1130       C  0.77026838  0.99694719  0.17129858     0.93800
O1131       O  0.82135313  0.53107373  0.13538064    -0.79700
O1132       O  0.89946355  0.97448655  0.14371176    -0.73300
Al1133     Al  0.81270241  0.98611568  0.12333079     1.90100
O1134       O  0.87688921  0.53113136  0.17256438    -0.72300
O1135       O  0.90341048  0.94150281  0.20857281    -0.72200
O1136       O  0.88148089  0.00077585  0.23422190    -0.77900
O1137       O  0.85369280  0.91176790  0.19485056    -0.76100
O1138       O  0.84113579  0.97250775  0.16844363    -1.12200
O1139       O  0.78716242  0.92651383  0.15554280    -0.71400
C1140       C  0.78126611  0.92406011  0.12082298     0.99300
C1141       C  0.84789215  0.54614484  0.15623701     0.95700
Al1142     Al  0.88662460  0.98553711  0.18773089     1.55600
O1143       O  0.77145060  0.49284051  0.13843557    -0.76000
C1144       C  0.88727986  0.91404709  0.20847223     0.99900
C1145       C  0.88112225  0.97895612  0.10982661     0.94800
O1146       O  0.84803713  0.48380870  0.10035073    -0.81300
O1147       O  0.57351957  0.95949059  0.25062800    -0.80800
C1148       C  0.70860723  0.01094943  0.33541645     0.98600
O1149       O  0.68145024  0.01169579  0.34680220    -0.69900
O1150       O  0.62358473  0.53915837  0.30436842    -0.73500
Al1151     Al  0.63223078  0.99586981  0.32298255     1.49000
C1152       C  0.59580113  0.54679048  0.27858562     0.93800
O1153       O  0.63601826  0.51604888  0.22277642    -0.79700
O1154       O  0.65441404  0.92177750  0.25701966    -0.73300
Al1155     Al  0.60581716  0.98736127  0.23732908     1.90100
O1156       O  0.68262258  0.98150478  0.24030364    -0.72300
O1157       O  0.68141514  0.93253423  0.32748823    -0.72200
O1158       O  0.70933630  0.99143260  0.30977967    -0.77900
O1159       O  0.63917711  0.95441405  0.34656835    -0.76100
O1160       O  0.63918627  0.98046798  0.28177028    -1.12200
O1161       O  0.58158644  0.98348889  0.30581281    -0.71400
C1162       C  0.56233251  0.96660641  0.27790805     0.99300
C1163       C  0.66716052  0.00781116  0.22381353     0.95700
Al1164     Al  0.67881605  0.95855881  0.28363522     1.55600
O1165       O  0.58327069  0.52694197  0.25151766    -0.76000
C1166       C  0.65983541  0.93068060  0.34618935     0.99900
C1167       C  0.63758184  0.92364281  0.22287644     0.94800
O1168       O  0.61964575  0.94980491  0.21019681    -0.81300
O1169       O  0.90570080  0.70418857  0.29695895    -0.80800
C1170       C  0.77104646  0.75779743  0.21296268     0.98600
O1171       O  0.79737393  0.75617591  0.20033325    -0.69900
O1172       O  0.85664146  0.78266195  0.23936361    -0.73500
Al1173     Al  0.84623250  0.73894293  0.22363473     1.49000
C1174       C  0.88455111  0.79065806  0.26460165     0.93800
O1175       O  0.84598776  0.76518844  0.32440834    -0.79700
O1176       O  0.82377777  0.67062410  0.29535809    -0.73300
Al1177     Al  0.87468802  0.73423288  0.30991312     1.90100
O1178       O  0.79836528  0.73258378  0.30958142    -0.72300
O1179       O  0.79587563  0.67856817  0.22497335    -0.72200
O1180       O  0.77063292  0.73997859  0.23995468    -0.77900
O1181       O  0.83706213  0.69661716  0.20205500    -0.76100
O1182       O  0.84020502  0.72657535  0.26650975    -1.12200
O1183       O  0.89666704  0.72507404  0.24030180    -0.71400
C1184       C  0.91663824  0.70975828  0.26926101     0.99300
C1185       C  0.81503845  0.75856781  0.32495531     0.95700
Al1186     Al  0.80032549  0.70704996  0.26722812     1.55600
O1187       O  0.89700277  0.77199871  0.29284720    -0.76000
C1188       C  0.81594978  0.67437599  0.20488831     0.99900
C1189       C  0.84261297  0.67283216  0.32879947     0.94800
O1190       O  0.86151599  0.69859808  0.33970181    -0.81300
C1191       C  0.16945404  0.58303814  0.13713585     0.31000
C1192       C  0.13714905  0.54515642  0.17822815     0.31000
C1193       C  0.15408623  0.60267952  0.16477250    -0.05200
C1194       C  0.13708024  0.56241121  0.11478123    -0.06000
C1195       C  0.19370496  0.55649987  0.16352123    -0.05800
C1196       C  0.13811296  0.58305392  0.18565826    -0.05200
C1197       C  0.12085049  0.54312313  0.13562580    -0.06000
C1198       C  0.17719328  0.53754629  0.18428411    -0.05800
C1199       C  0.13031359  0.60366281  0.21158789    -0.31200
N1200       N  0.13797054  0.63546439  0.20554470     0.15300
C1201       C  0.15394033  0.63518348  0.17825038    -0.31200
H1202       H  0.16700484  0.65659884  0.17115541     0.17200
C1203       C  0.09791881  0.52155868  0.11117781    -0.30200
N1204       N  0.09917054  0.52775497  0.07613661     0.14000
C1205       C  0.12307129  0.55249582  0.07810231    -0.30200
C1206       C  0.20264272  0.51536614  0.20520702    -0.30500
N1207       N  0.23351055  0.51899074  0.19680224     0.14500
H1208       H  0.19917816  0.99754786  0.22529126     0.17100
C1209       C  0.22892075  0.54482661  0.17255294    -0.30500
H1210       H  0.25005244  0.55446464  0.16298827     0.17100
H1211       H  0.13235178  0.56015407  0.05516321     0.17100
H1212       H  0.12191403  0.59615626  0.23510698     0.17200
H1213       H  0.08389508  0.50100421  0.11869006     0.17100
O1214       O  0.28871992  0.68194987  0.10511836    -0.80800
C1215       C  0.36750374  0.72698203  0.25306522     0.98600
O1216       O  0.35004120  0.70092781  0.24260634    -0.69900
O1217       O  0.28905165  0.72444348  0.20036770    -0.73500
Al1218     Al  0.31797210  0.68896599  0.19531842     1.49000
C1219       C  0.26733106  0.74024259  0.17367323     0.93800
O1220       O  0.31306675  0.77131627  0.13124392    -0.79700
O1221       O  0.39017772  0.71589484  0.13761476    -0.73300
Al1222     Al  0.30409465  0.72636104  0.12146655     1.90100
O1223       O  0.36878468  0.77321908  0.16682931    -0.72300
O1224       O  0.39746689  0.68344205  0.20367005    -0.72200
O1225       O  0.37701211  0.74354359  0.22960784    -0.77900
O1226       O  0.34780773  0.65357053  0.19197433    -0.76100
O1227       O  0.33448049  0.71395088  0.16585032    -1.12200
O1228       O  0.27973490  0.66889679  0.15762661    -0.71400
C1229       C  0.27228920  0.66532583  0.12283546     0.99300
C1230       C  0.33925253  0.78760466  0.15077166     0.95700
Al1231     Al  0.37976056  0.72757452  0.18256823     1.55600
O1232       O  0.26514363  0.73442145  0.13998987    -0.76000
C1233       C  0.38150538  0.65594477  0.20460392     0.99900
C1234       C  0.37050595  0.71876422  0.10399149     0.94800
O1235       O  0.33733478  0.72272231  0.09578687    -0.81300
C1236       C  0.30689057  0.82995760  0.41111691     0.31000
C1237       C  0.34320266  0.79158058  0.37474668     0.31000
C1238       C  0.31735687  0.84740798  0.37961083    -0.05200
C1239       C  0.34327687  0.81662485  0.43622768    -0.06000
C1240       C  0.28868812  0.79712895  0.39385365    -0.05800
C1241       C  0.33513158  0.82790259  0.36056474    -0.05200
C1242       C  0.36194591  0.79642573  0.41727216    -0.06000
C1243       C  0.30562612  0.77885057  0.37326854    -0.05800
C1244       C  0.34550117  0.84922568  0.33681432    -0.31200
N1245       N  0.33818191  0.88115174  0.34388431     0.15300
C1246       C  0.32052060  0.88035586  0.36969958    -0.31200
H1247       H  0.31044610  0.90209311  0.38032516     0.17200
C1248       C  0.38141001  0.77345387  0.44313340    -0.30200
N1249       N  0.37654727  0.77936366  0.47661387     0.14000
C1250       C  0.35263630  0.80459088  0.47239010    -0.30200
C1251       C  0.28147549  0.75428316  0.35544468    -0.30500
N1252       N  0.25195251  0.75594411  0.36698890     0.14500
H1253       H  0.28420563  0.73746569  0.33396906     0.17100
C1254       C  0.25692623  0.78112051  0.39178844    -0.30500
H1255       H  0.23745744  0.78861326  0.40514742     0.17100
H1256       H  0.33896512  0.81040320  0.49254053     0.17100
H1257       H  0.35742702  0.84243021  0.31556022     0.17200
H1258       H  0.39417781  0.75128733  0.43673342     0.17100
O1259       O  0.19014326  0.93425558  0.45112538    -0.80800
C1260       C  0.11573022  0.98299753  0.30333427     0.98600
O1261       O  0.13627294  0.95912819  0.31533760    -0.69900
O1262       O  0.19288445  0.98745194  0.36246724    -0.73500
Al1263     Al  0.16671049  0.94907131  0.36333548     1.49000
C1264       C  0.21448419  0.00003649  0.39174061     0.93800
O1265       O  0.16031561  0.52392558  0.43472621    -0.79700
O1266       O  0.08686294  0.97031746  0.41554964    -0.73300
Al1267     Al  0.17268685  0.97918808  0.43917500     1.90100
O1268       O  0.10934140  0.52673951  0.38889495    -0.72300
O1269       O  0.08682429  0.93690720  0.35246350    -0.72200
O1270       O  0.10340289  0.99835720  0.32567951    -0.77900
O1271       O  0.13953515  0.91099396  0.36298805    -0.76100
O1272       O  0.14582351  0.96982496  0.39217984    -1.12200
O1273       O  0.20591637  0.93088082  0.40087310    -0.71400
C1274       C  0.20848170  0.92072986  0.43307175     0.99300
C1275       C  0.13615361  0.54052037  0.41186966     0.95700
Al1276     Al  0.10023512  0.98177517  0.37266736     1.55600
O1277       O  0.21309989  0.49304776  0.42426644    -0.76000
C1278       C  0.10556964  0.91082426  0.35178757     0.99900
C1279       C  0.10418036  0.96870584  0.44992100     0.94800
O1280       O  0.13767124  0.46933666  0.46129134    -0.81300
O1281       O  0.07924211  0.69950101  0.26354739    -0.80800
C1282       C  0.21890119  0.73845032  0.34999908     0.98600
O1283       O  0.19146015  0.74272501  0.36048601    -0.69900
O1284       O  0.13601556  0.77536763  0.31964428    -0.73500
Al1285     Al  0.14075553  0.73155501  0.33667287     1.49000
C1286       C  0.10758347  0.78492883  0.29609509     0.93800
O1287       O  0.14377449  0.75388598  0.23832417    -0.79700
O1288       O  0.15444099  0.65786154  0.26516941    -0.73300
Al1289     Al  0.11234028  0.72644842  0.25118578     1.90100
O1290       O  0.18833187  0.71668978  0.25271944    -0.72300
O1291       O  0.18254405  0.66393869  0.33632463    -0.72200
O1292       O  0.21738606  0.71969754  0.32311696    -0.77900
O1293       O  0.14481767  0.69047081  0.35879465    -0.76100
O1294       O  0.14569630  0.71624516  0.29466131    -1.12200
O1295       O  0.08840034  0.72267240  0.31947601    -0.71400
C1296       C  0.06806150  0.70748907  0.29054356     0.99300
C1297       C  0.17404047  0.74420033  0.23800919     0.95700
Al1298     Al  0.18276790  0.69140747  0.29434846     1.55600
O1299       O  0.09258304  0.76649889  0.26834262    -0.76000
C1300       C  0.16275609  0.66512517  0.35711648     0.99900
C1301       C  0.13820490  0.66216575  0.23122819     0.94800
O1302       O  0.12290246  0.68988783  0.22057583    -0.81300
O1303       O  0.40279636  0.94802050  0.29216879    -0.80800
C1304       C  0.26503946  0.99857704  0.21253761     0.98600
O1305       O  0.29099988  0.99797603  0.19926088    -0.69900
O1306       O  0.34771527  0.52745523  0.24150773    -0.73500
Al1307     Al  0.34120784  0.98418850  0.22262014     1.49000
C1308       C  0.37642085  0.53517154  0.26587303     0.93800
O1309       O  0.34092456  0.50160664  0.32559707    -0.79700
O1310       O  0.32222343  0.90881954  0.28722611    -0.73300
Al1311     Al  0.37049279  0.97443796  0.30792209     1.90100
O1312       O  0.29467009  0.96735545  0.30892747    -0.72300
O1313       O  0.29276494  0.92212256  0.21768815    -0.72200
O1314       O  0.26600305  0.98059859  0.23991821    -0.77900
O1315       O  0.33635104  0.94252229  0.20012213    -0.76100
O1316       O  0.33600580  0.96830588  0.26436777    -1.12200
O1317       O  0.39260677  0.97425754  0.23813143    -0.71400
C1318       C  0.41335910  0.95766475  0.26538673     0.99300
C1319       C  0.31091010  0.99253732  0.32692772     0.95700
Al1320     Al  0.29693468  0.94647339  0.26338874     1.55600
O1321       O  0.39034288  0.51552982  0.29308929    -0.76000
C1322       C  0.31551352  0.91920928  0.20036522     0.99900
C1323       C  0.34051027  0.90929188  0.32098543     0.94800
O1324       O  0.35887884  0.93501665  0.33424818    -0.81300
C1325       C  0.08639551  0.84373467  0.28080898     0.24600
C1326       C  0.09165050  0.81604352  0.30458109    -0.23500
C1327       C  0.09034420  0.82028850  0.34137333     0.19500
C1328       C  0.08961505  0.85213721  0.35601631     0.24600
C1329       C  0.08894010  0.88007437  0.33370272    -0.23400
C1330       C  0.08487546  0.87574333  0.29535705     0.19500
F1331       F  0.08447439  0.90265555  0.27340309    -0.13400
F1332       F  0.08732478  0.84025117  0.24519874    -0.15800
F1333       F  0.09410928  0.85576575  0.39313383    -0.15800
F1334       F  0.09390151  0.79364311  0.36449148    -0.13400
C1335       C  0.17843098  0.58679635  0.41466465     0.24600
C1336       C  0.14280752  0.57603201  0.40788621    -0.23500
C1337       C  0.11458831  0.59719888  0.38905984     0.19500
C1338       C  0.12166341  0.62703250  0.37415796     0.24600
C1339       C  0.15699175  0.63584565  0.37734091    -0.23400
C1340       C  0.18537997  0.61625683  0.39873529     0.19500
F1341       F  0.21965009  0.62518804  0.40338628    -0.13400
F1342       F  0.20666769  0.56755808  0.43384693    -0.15800
F1343       F  0.09373920  0.64603077  0.35387230    -0.15800
F1344       F  0.08014306  0.58801596  0.38292238    -0.13400
C1345       C  0.23918524  0.03440950  0.35262972     0.24600
C1346       C  0.24458955  0.01829708  0.38714091    -0.23500
C1347       C  0.27878625  0.00646631  0.40728924     0.19500
C1348       C  0.30381869  0.00198311  0.38853711     0.24600
C1349       C  0.29464327  0.01062968  0.35064064    -0.23400
C1350       C  0.26401610  0.02967564  0.33377124     0.19500
F1351       F  0.25579673  0.03915651  0.29735865    -0.13400
F1352       F  0.20686802  0.04802870  0.33397303    -0.15800
F1353       F  0.33413221  0.98432242  0.40519519    -0.15800
F1354       F  0.28513775  0.99252007  0.44166986    -0.13400
C1355       C  0.24538419  0.85249225  0.40351207     0.24600
C1356       C  0.28170621  0.85136692  0.42546787    -0.23500
C1357       C  0.29240671  0.87207065  0.45739650     0.19500
C1358       C  0.26695614  0.89323893  0.46559811     0.24600
C1359       C  0.23038581  0.89070137  0.44475157    -0.23400
C1360       C  0.22002019  0.86585159  0.41765182     0.19500
F1361       F  0.18506184  0.86221093  0.39741728    -0.13400
F1362       F  0.23422266  0.84203293  0.36727470    -0.15800
F1363       F  0.27823789  0.91810183  0.49098276    -0.15800
F1364       F  0.32747197  0.87529514  0.47715478    -0.13400
C1365       C  0.40182507  0.62478763  0.26388267     0.24600
C1366       C  0.40030144  0.62702761  0.22592042    -0.23500
C1367       C  0.40180262  0.59776190  0.20629104     0.19500
C1368       C  0.39954524  0.56686901  0.22237201     0.24600
C1369       C  0.39470644  0.56488666  0.25793911    -0.23400
C1370       C  0.39837945  0.59380275  0.27968427     0.19500
F1371       F  0.39399121  0.59262575  0.31406323    -0.13400
F1372       F  0.40108665  0.65289654  0.28374531    -0.15800
F1373       F  0.39746182  0.53906019  0.20120767    -0.15800
F1374       F  0.40029913  0.59924180  0.16974744    -0.13400
C1375       C  0.29803467  0.83527659  0.15233232     0.24600
C1376       C  0.33327070  0.82330150  0.15782448    -0.23500
C1377       C  0.36200836  0.84437049  0.17503596     0.19500
C1378       C  0.35582102  0.87608533  0.18728927     0.24600
C1379       C  0.32075467  0.88731281  0.18310545    -0.23400
C1380       C  0.29199031  0.86672896  0.16532491     0.19500
F1381       F  0.25800888  0.87681882  0.16107834    -0.13400
F1382       F  0.26916972  0.81594009  0.13626598    -0.15800
F1383       F  0.38443968  0.89494893  0.20564234    -0.15800
F1384       F  0.39620767  0.83391003  0.18133329    -0.13400
C1385       C  0.39101539  0.76901967  0.30494700     0.24600
C1386       C  0.37399962  0.73858507  0.29214771    -0.23500
C1387       C  0.36011257  0.72052179  0.31659549     0.19500
C1388       C  0.35629527  0.73582750  0.34848309     0.24600
C1389       C  0.36401405  0.76983784  0.35490366    -0.23400
C1390       C  0.38760484  0.78363880  0.33757869     0.19500
F1391       F  0.40689979  0.81115379  0.35191662    -0.13400
F1392       F  0.40935326  0.78528978  0.28524315    -0.15800
F1393       F  0.34412445  0.71769177  0.37234778    -0.15800
F1394       F  0.34803185  0.68891831  0.30862679    -0.13400
C1395       C  0.36633508  0.71027281  0.03766448     0.24600
C1396       C  0.38552580  0.72305173  0.07310759    -0.23500
C1397       C  0.40862014  0.75006413  0.07527018     0.19500
C1398       C  0.40807513  0.76717852  0.04267518     0.24600
C1399       C  0.38536990  0.75683357  0.00772577    -0.23400
C1400       C  0.36620731  0.72715392  0.00513006     0.19500
F1401       F  0.34389135  0.71701792  0.97151591    -0.13400
F1402       F  0.34384200  0.68422905  0.03484731    -0.15800
F1403       F  0.42686549  0.79578226  0.54544308    -0.15800
F1404       F  0.42717974  0.76315653  0.10905447    -0.13400
C1405       C  0.25191762  0.77563158  0.21916321     0.24600
C1406       C  0.24250172  0.76321605  0.18244220    -0.23500
C1407       C  0.20645060  0.76202156  0.16067582     0.19500
C1408       C  0.18087821  0.76188956  0.17898757     0.24600
C1409       C  0.19225524  0.76401850  0.21809887    -0.23400
C1410       C  0.22653933  0.77512940  0.23756760     0.19500
F1411       F  0.23673067  0.77955818  0.27525386    -0.13400
F1412       F  0.28666609  0.78098413  0.23915769    -0.15800
F1413       F  0.14682603  0.75308659  0.15988148    -0.15800
F1414       F  0.19667236  0.75422094  0.12372964    -0.13400
C1415       C  0.21640951  0.58949784  0.10287718     0.24600
C1416       C  0.18757128  0.60296283  0.11315458    -0.23500
C1417       C  0.18034405  0.63703429  0.10600498     0.19500
C1418       C  0.20724010  0.65804652  0.10241720     0.24600
C1419       C  0.24085761  0.64490667  0.10418932    -0.23400
C1420       C  0.24422942  0.61035790  0.10090834     0.19500
F1421       F  0.27541096  0.59682040  0.09948929    -0.13400
F1422       F  0.21874945  0.55626235  0.09721611    -0.15800
F1423       F  0.20196554  0.69144965  0.10181423    -0.15800
F1424       F  0.14793805  0.65010587  0.10380409    -0.13400
C1425       C  0.09364633  0.53684544  0.21654337     0.24600
C1426       C  0.11860459  0.52357213  0.20028746    -0.23500
C1427       C  0.12864559  0.99013689  0.20841307     0.19500
C1428       C  0.12505649  0.97544221  0.24068128     0.24600
C1429       C  0.10922415  0.99346332  0.26384218    -0.23400
C1430       C  0.09030529  0.52275946  0.24937252     0.19500
F1431       F  0.06992855  0.53840405  0.26754360    -0.13400
F1432       F  0.07247205  0.56309538  0.20068123    -0.15800
F1433       F  0.13908321  0.94451007  0.25026097    -0.15800
F1434       F  0.14356726  0.97230635  0.18634967    -0.13400
C1435       C  0.10034267  0.97368032  0.04612991     0.24600
C1436       C  0.08650332  0.50618767  0.04433771    -0.23500
C1437       C  0.06739937  0.51971554  0.00937998     0.19500
C1438       C  0.06652001  0.50296857  0.47645866     0.24600
C1439       C  0.08613255  0.47321223  0.47840046    -0.23400
C1440       C  0.10041354  0.95733183  0.01325378     0.19500
F1441       F  0.11909801  0.92842105  0.01580780    -0.13400
F1442       F  0.11851064  0.95997383  0.07973236    -0.15800
F1443       F  0.05234268  0.51891241  0.44319290    -0.15800
F1444       F  0.05338700  0.55091015  0.00721790    -0.13400
C1445       C  0.00486451  0.70947383  0.24911494     0.24600
C1446       C  0.02941801  0.70318645  0.28488969    -0.23500
C1447       C  0.01629594  0.69504815  0.31435080     0.19500
C1448       C  0.97936807  0.69396210  0.30839017     0.24600
C1449       C  0.95475720  0.70251492  0.27310488    -0.23400
C1450       C  0.96812657  0.70936848  0.24335953     0.19500
F1451       F  0.94583249  0.71769108  0.20892582    -0.13400
F1452       F  0.01640371  0.71823109  0.21999170    -0.15800
F1453       F  0.96796971  0.68620847  0.33788047    -0.15800
F1454       F  0.03910544  0.68882591  0.34910985    -0.13400
C1455       C  0.49895739  0.95368393  0.23990459     0.24600
C1456       C  0.52497467  0.95821858  0.27526302    -0.23500
C1457       C  0.51392611  0.95863989  0.30736054     0.19500
C1458       C  0.47772599  0.95623668  0.30413475     0.24600
C1459       C  0.45159754  0.95367162  0.26866152    -0.23400
C1460       C  0.46265484  0.95182654  0.23667140     0.19500
F1461       F  0.43821937  0.94936935  0.20208746    -0.13400
F1462       F  0.50822634  0.95326364  0.20802870    -0.15800
F1463       F  0.46814377  0.95911530  0.33570253    -0.15800
F1464       F  0.53799894  0.96271981  0.34192074    -0.13400
C1465       C  0.90983258  0.85659836  0.20889572     0.24600
C1466       C  0.90585021  0.88480802  0.22913301    -0.23500
C1467       C  0.90573578  0.88101058  0.26639966     0.19500
C1468       C  0.90387591  0.84918910  0.28096427     0.24600
C1469       C  0.90244983  0.82112709  0.25840281    -0.23400
C1470       C  0.90836533  0.82487106  0.22354524     0.19500
F1471       F  0.90810155  0.79784275  0.20166771    -0.13400
F1472       F  0.91015439  0.85972355  0.17304832    -0.15800
F1473       F  0.89826615  0.84613547  0.31464414    -0.15800
F1474       F  0.90172954  0.90806908  0.28648174    -0.13400
C1475       C  0.82737045  0.61424334  0.21402469     0.24600
C1476       C  0.81929018  0.64134972  0.18927929    -0.23500
C1477       C  0.82194970  0.63744397  0.15297829     0.19500
C1478       C  0.83228857  0.60658237  0.14173016     0.24600
C1479       C  0.84197385  0.58013996  0.16742768    -0.23400
C1480       C  0.83902070  0.58424015  0.20338128     0.19500
F1481       F  0.84618206  0.55860519  0.22802874    -0.13400
F1482       F  0.82577363  0.61720577  0.24941591    -0.15800
F1483       F  0.83314366  0.60257060  0.10615653    -0.15800
F1484       F  0.81438686  0.66337703  0.12857677    -0.13400
C1485       C  0.70779167  0.01760601  0.15264526     0.24600
C1486       C  0.74264907  0.01801558  0.17790901    -0.23500
C1487       C  0.74889040  0.03226975  0.21348006     0.19500
C1488       C  0.72022410  0.03817216  0.22653916     0.24600
C1489       C  0.68627077  0.02784793  0.20474007    -0.23400
C1490       C  0.67919883  0.02198378  0.16644377     0.19500
F1491       F  0.64580267  0.01372838  0.14463902    -0.13400
F1492       F  0.70127224  0.00791715  0.11659927    -0.15800
F1493       F  0.72646924  0.04665356  0.26298437    -0.15800
F1494       F  0.78258022  0.03567509  0.23735909    -0.13400
C1495       C  0.71661830  0.91696212  0.09732494     0.24600
C1496       C  0.75042245  0.90360393  0.10043856    -0.23500
C1497       C  0.75387030  0.86888314  0.09948534     0.19500
C1498       C  0.72608199  0.84862954  0.10275407     0.24600
C1499       C  0.69750402  0.86303012  0.11277210    -0.23400
C1500       C  0.69021800  0.89685188  0.10368222     0.19500
F1501       F  0.65791216  0.91043949  0.10086536    -0.13400
F1502       F  0.71082882  0.95015396  0.09275139    -0.15800
F1503       F  0.72819911  0.81517172  0.09851091    -0.15800
F1504       F  0.78504145  0.85477642  0.09884231    -0.13400
C1505       C  0.56752999  0.61216590  0.33279775     0.24600
C1506       C  0.57594625  0.64063951  0.31595297    -0.23500
C1507       C  0.57935333  0.63793284  0.27978357     0.19500
C1508       C  0.58088531  0.60654754  0.26391521     0.24600
C1509       C  0.57761506  0.57777799  0.28350059    -0.23400
C1510       C  0.56778755  0.58090286  0.31631428     0.19500
F1511       F  0.56331795  0.55324293  0.33505527    -0.13400
F1512       F  0.56356941  0.61413297  0.36732666    -0.15800
F1513       F  0.59051940  0.60420632  0.23233731    -0.15800
F1514       F  0.58657206  0.66527944  0.26235342    -0.13400
C1515       C  0.67977388  0.84663726  0.39385059     0.24600
C1516       C  0.64490520  0.83467726  0.38925952    -0.23500
C1517       C  0.61577708  0.85631101  0.37437000     0.19500
C1518       C  0.62114192  0.88832689  0.36255429     0.24600
C1519       C  0.65571360  0.89926000  0.36482751    -0.23400
C1520       C  0.68497675  0.87839856  0.38129989     0.19500
F1521       F  0.71860940  0.88847267  0.38452645    -0.13400
F1522       F  0.70898979  0.82699887  0.40850450    -0.15800
F1523       F  0.59208649  0.90774860  0.34632350    -0.15800
F1524       F  0.58193247  0.84616542  0.36996470    -0.13400
C1525       C  0.62952273  0.73338804  0.23407858     0.24600
C1526       C  0.61221933  0.75028469  0.25662146    -0.23500
C1527       C  0.59382141  0.77998872  0.24263340     0.19500
C1528       C  0.59892764  0.79543924  0.21132507     0.24600
C1529       C  0.62494702  0.78304540  0.19605290    -0.23400
C1530       C  0.63471504  0.74936921  0.20318446     0.19500
F1531       F  0.65093071  0.73250835  0.18157960    -0.13400
F1532       F  0.64324706  0.70226672  0.24292250    -0.15800
F1533       F  0.57745360  0.82139391  0.19514040    -0.15800
F1534       F  0.57164197  0.79440937  0.25952597    -0.13400
C1535       C  0.57236342  0.76819509  0.47160827     0.24600
C1536       C  0.58813814  0.73692263  0.47033400    -0.23500
C1537       C  0.60319203  0.71920007  0.00392226     0.19500
C1538       C  0.60695309  0.73451321  0.03843268     0.24600
C1539       C  0.59604676  0.76776255  0.03953018    -0.23400
C1540       C  0.57690623  0.78376860  0.00607259     0.19500
F1541       F  0.56631107  0.81593301  0.00678059    -0.13400
F1542       F  0.55862594  0.78618965  0.43969944    -0.15800
F1543       F  0.62577745  0.71871074  0.07051111    -0.15800
F1544       F  0.61937636  0.68930572  0.00339505    -0.13400
C1545       C  0.77797753  0.76455881  0.39734166     0.24600
C1546       C  0.74283094  0.76598713  0.37288038    -0.23500
C1547       C  0.73551198  0.78282999  0.33860683     0.19500
C1548       C  0.76356456  0.79056680  0.32526479     0.24600
C1549       C  0.79796617  0.77961594  0.34554575    -0.23400
C1550       C  0.80593151  0.77176370  0.38351836     0.19500
F1551       F  0.83978111  0.76325072  0.40410093    -0.13400
F1552       F  0.78552359  0.75132747  0.43209341    -0.15800
F1553       F  0.75629134  0.80091025  0.28925903    -0.15800
F1554       F  0.70137315  0.78760971  0.31615020    -0.13400
C1555       C  0.75506392  0.59735830  0.44781832     0.24600
C1556       C  0.78408243  0.61171661  0.43896494    -0.23500
C1557       C  0.79151996  0.64521089  0.44936295     0.19500
C1558       C  0.76504155  0.66531375  0.45618188     0.24600
C1559       C  0.73081480  0.65244046  0.45089735    -0.23400
C1560       C  0.72692591  0.61779730  0.45037156     0.19500
F1561       F  0.69505794  0.60408921  0.44852917    -0.13400
F1562       F  0.75252726  0.56382597  0.45070503    -0.15800
F1563       F  0.77115840  0.69820350  0.46307896    -0.15800
F1564       F  0.82390474  0.65847955  0.45278614    -0.13400
C1565       C  0.85164064  0.98238871  0.31518778     0.24600
C1566       C  0.87042028  0.99835842  0.29366801    -0.23500
C1567       C  0.88832086  0.52809777  0.30780393     0.19500
C1568       C  0.88229180  0.54401490  0.33859800     0.24600
C1569       C  0.85589553  0.53210385  0.35345685    -0.23400
C1570       C  0.84567600  0.99870086  0.34565643     0.19500
F1571       F  0.82859103  0.98224485  0.36649727    -0.13400
F1572       F  0.83736837  0.95169053  0.30581168    -0.15800
F1573       F  0.90370776  0.56968030  0.35506022    -0.15800
F1574       F  0.91103020  0.54213375  0.29157087    -0.13400
C1575       C  0.87755050  0.98258521  0.01186060     0.24600
C1576       C  0.88721276  0.51609570  0.01098359    -0.23500
C1577       C  0.90642588  0.53183976  0.04456704     0.19500
C1578       C  0.91220831  0.51558585  0.07891966     0.24600
C1579       C  0.89733709  0.48401968  0.08003239    -0.23400
C1580       C  0.88262164  0.96660573  0.04624712     0.19500
F1581       F  0.86799487  0.93613950  0.04659885    -0.13400
F1582       F  0.85868287  0.96699420  0.97976436    -0.15800
F1583       F  0.92647779  0.53301382  0.11110601    -0.15800
F1584       F  0.91623828  0.56414911  0.04422530    -0.13400
C1585       C  0.80332213  0.59257443  0.91525677     0.31000
C1586       C  0.83709400  0.55446385  0.87512871     0.31000
C1587       C  0.82212259  0.61239101  0.89097191    -0.05200
C1588       C  0.83345330  0.56949939  0.93803387    -0.06000
C1589       C  0.77902062  0.56834574  0.88593192    -0.05800
C1590       C  0.83892688  0.59271112  0.87053202    -0.05200
C1591       C  0.85040252  0.55006305  0.91780572    -0.06000
C1592       C  0.79626863  0.54923311  0.86577769    -0.05800
C1593       C  0.84904537  0.61385481  0.84669306    -0.31200
N1594       N  0.84195651  0.64576028  0.85365476     0.15300
C1595       C  0.82398417  0.64519009  0.87925924    -0.31200
H1596       H  0.81046854  0.66666367  0.88602400     0.17200
C1597       C  0.87367028  0.52892367  0.94295593    -0.30200
N1598       N  0.87174771  0.53556597  0.97774252     0.14000
C1599       C  0.84724861  0.56021637  0.97498424    -0.30200
C1600       C  0.77108305  0.52754542  0.84400568    -0.30500
N1601       N  0.73961370  0.53168534  0.85120760     0.14500
H1602       H  0.77535544  0.00923630  0.82468876     0.17100
C1603       C  0.74357508  0.55749618  0.87541423    -0.30500
H1604       H  0.72212540  0.56712608  0.88468983     0.17100
H1605       H  0.83851102  0.56919836  0.99787968     0.17100
H1606       H  0.85810177  0.60670012  0.82344499     0.17200
H1607       H  0.88955782  0.50921868  0.93630176     0.17100
O1608       O  0.68463359  0.69290015  0.94554197    -0.80800
C1609       C  0.61600238  0.73825584  0.79507387     0.98400
O1610       O  0.63275029  0.71166216  0.80616488    -0.69900
O1611       O  0.69383596  0.73036144  0.85174581    -0.73500
Al1612     Al  0.66112847  0.69746814  0.85449933     1.49000
C1613       C  0.71538459  0.74504275  0.87928436     0.93800
O1614       O  0.66602846  0.78207390  0.91420000    -0.79700
O1615       O  0.58580932  0.72746666  0.90665307    -0.73300
Al1616     Al  0.67257900  0.73718555  0.92677751     1.90100
O1617       O  0.60973323  0.78477921  0.88035291    -0.72300
O1618       O  0.58015390  0.69644191  0.84009307    -0.72200
O1619       O  0.60475008  0.75503508  0.81740811    -0.77900
O1620       O  0.62825988  0.66401182  0.85484880    -0.76100
O1621       O  0.64364128  0.72434998  0.88187028    -1.12200
O1622       O  0.69532044  0.67554449  0.89497264    -0.71400
C1623       C  0.70077855  0.67361285  0.92973354     0.99300
C1624       C  0.63949074  0.79880207  0.89560195     0.95700
Al1625     Al  0.59870809  0.73939985  0.86310285     1.55600
O1626       O  0.71427214  0.74085978  0.91209454    -0.76000
C1627       C  0.59501219  0.66815791  0.83968692     0.99900
C1628       C  0.60420434  0.73229489  0.94042386     0.94800
O1629       O  0.63714056  0.73753756  0.94966379    -0.81300
C1630       C  0.67823027  0.84350556  0.63599275     0.31000
C1631       C  0.64410409  0.80534279  0.67518706     0.31000
C1632       C  0.66002630  0.86316191  0.66125589    -0.05200
C1633       C  0.64760583  0.82152525  0.61269713    -0.06000
C1634       C  0.70217027  0.81799376  0.66419778    -0.05800
C1635       C  0.64313162  0.84343534  0.68127283    -0.05200
C1636       C  0.63049862  0.80206260  0.63250400    -0.06000
C1637       C  0.68468748  0.79900677  0.68399988    -0.05800
C1638       C  0.63301429  0.86432911  0.70556626    -0.31200
N1639       N  0.64000106  0.89621583  0.69902015     0.15300
C1640       C  0.65800294  0.89583406  0.67346411    -0.31200
H1641       H  0.67114143  0.91741850  0.66685991     0.17200
C1642       C  0.60817247  0.78060815  0.60727647    -0.30200
N1643       N  0.61070563  0.78716586  0.57280394     0.14000
C1644       C  0.63476946  0.81192916  0.57584542    -0.30200
C1645       C  0.70927365  0.77624090  0.70483816    -0.30500
N1646       N  0.74054708  0.77936788  0.69720393     0.14500
H1647       H  0.70474540  0.75791357  0.72385772     0.17100
C1648       C  0.73716756  0.80562518  0.67370009    -0.30500
H1649       H  0.75871348  0.81465785  0.66440319     0.17100
H1650       H  0.64413576  0.82053903  0.55331499     0.17100
H1651       H  0.62354303  0.85706324  0.72844054     0.17200
H1652       H  0.59282150  0.76057945  0.61372912     0.17100
O1653       O  0.79810227  0.94203160  0.60467445    -0.80800
C1654       C  0.86849489  0.98528863  0.75587179     0.98600
O1655       O  0.85134646  0.95923591  0.74439684    -0.69900
O1656       O  0.79138459  0.98151592  0.69870967    -0.73500
Al1657     Al  0.82250423  0.94685836  0.69569713     1.49000
C1658       C  0.77026834  0.99694721  0.67129852     0.93800
O1659       O  0.82135309  0.53107373  0.63538056    -0.79700
O1660       O  0.89946353  0.97448656  0.64371174    -0.73300
Al1661     Al  0.81270238  0.98611568  0.62333074     1.90100
O1662       O  0.87688915  0.53113137  0.67256436    -0.72300
O1663       O  0.90341045  0.94150283  0.70857280    -0.72200
O1664       O  0.88148085  0.00077588  0.73422187    -0.77900
O1665       O  0.85369276  0.91176791  0.69485056    -0.76100
O1666       O  0.84113576  0.97250776  0.66844359    -1.12200
O1667       O  0.78716238  0.92651385  0.65554278    -0.71400
C1668       C  0.78126606  0.92406013  0.62082295     0.99300
C1669       C  0.84789209  0.54614485  0.65623696     0.95700
Al1670     Al  0.88662456  0.98553713  0.68773086     1.55600
O1671       O  0.77145056  0.49284051  0.63843551    -0.76000
C1672       C  0.88727983  0.91404710  0.70847223     0.99900
C1673       C  0.88112224  0.97895610  0.60982658     0.94800
O1674       O  0.84803710  0.48380866  0.60035070    -0.81300
O1675       O  0.57351958  0.95949056  0.75062800    -0.80800
C1676       C  0.70860723  0.01094944  0.83541647     0.98600
O1677       O  0.68145024  0.01169579  0.84680222    -0.69900
O1678       O  0.62358471  0.53915834  0.80436844    -0.73500
Al1679     Al  0.63223078  0.99586979  0.82298256     1.49000
C1680       C  0.59580112  0.54679046  0.77858563     0.93800
O1681       O  0.63601827  0.51604887  0.72277644    -0.79700
O1682       O  0.65441408  0.92177750  0.75701968    -0.73300
Al1683     Al  0.60581717  0.98736125  0.73732909     1.90100
O1684       O  0.68262259  0.98150479  0.74030366    -0.72300
O1685       O  0.68141517  0.93253423  0.82748824    -0.72200
O1686       O  0.70933631  0.99143262  0.80977969    -0.77900
O1687       O  0.63917713  0.95441403  0.84656835    -0.76100
O1688       O  0.63918628  0.98046797  0.78177029    -1.12200
O1689       O  0.58158645  0.98348885  0.80581282    -0.71400
C1690       C  0.56233253  0.96660638  0.77790805     0.99300
C1691       C  0.66716052  0.00781117  0.72381353     0.95700
Al1692     Al  0.67881607  0.95855882  0.78363524     1.55600
O1693       O  0.58327068  0.52694195  0.75151765    -0.76000
C1694       C  0.65983543  0.93068058  0.84618935     0.99900
C1695       C  0.63758187  0.92364280  0.72287646     0.94800
O1696       O  0.61964577  0.94980490  0.71019683    -0.81300
O1697       O  0.90570081  0.70418858  0.79695898    -0.80800
C1698       C  0.77104647  0.75779746  0.71296270     0.98600
O1699       O  0.79737394  0.75617593  0.70033327    -0.69900
O1700       O  0.85664149  0.78266197  0.73936363    -0.73500
Al1701     Al  0.84623251  0.73894294  0.72363475     1.49000
C1702       C  0.88455113  0.79065807  0.76460169     0.93800
O1703       O  0.84598775  0.76518844  0.82440835    -0.79700
O1704       O  0.82377777  0.67062410  0.79535806    -0.73300
Al1705     Al  0.87468802  0.73423288  0.80991314     1.90100
O1706       O  0.79836528  0.73258376  0.80958144    -0.72300
O1707       O  0.79587561  0.67856820  0.72497333    -0.72200
O1708       O  0.77063293  0.73997862  0.73995470    -0.77900
O1709       O  0.83706213  0.69661717  0.70205501    -0.76100
O1710       O  0.84020502  0.72657536  0.76650976    -1.12200
O1711       O  0.89666703  0.72507404  0.74030183    -0.71400
C1712       C  0.91663823  0.70975827  0.76926103     0.99300
C1713       C  0.81503845  0.75856780  0.82495533     0.95700
Al1714     Al  0.80032549  0.70704997  0.76722812     1.55600
O1715       O  0.89700278  0.77199872  0.79284724    -0.76000
C1716       C  0.81594976  0.67437601  0.70488830     0.99900
C1717       C  0.84261295  0.67283215  0.82879945     0.94800
O1718       O  0.86151597  0.69859807  0.83970181    -0.81300
C1719       C  0.16945405  0.58303815  0.63713588     0.31000
C1720       C  0.13714905  0.54515642  0.67822818     0.31000
C1721       C  0.15408620  0.60267953  0.66477250    -0.05200
C1722       C  0.13708029  0.56241118  0.61478125    -0.06000
C1723       C  0.19370498  0.55649990  0.66352130    -0.05800
C1724       C  0.13811292  0.58305392  0.68565825    -0.05200
C1725       C  0.12085054  0.54312310  0.63562582    -0.06000
C1726       C  0.17719330  0.53754633  0.68428418    -0.05800
C1727       C  0.13031354  0.60366281  0.71158789    -0.31200
N1728       N  0.13797050  0.63546439  0.70554471     0.15300
C1729       C  0.15394031  0.63518348  0.67825040    -0.31200
H1730       H  0.16700483  0.65659884  0.67115545     0.17200
C1731       C  0.09791885  0.52155866  0.61117781    -0.30200
N1732       N  0.09917057  0.52775497  0.57613661     0.14000
C1733       C  0.12307132  0.55249581  0.57810233    -0.30200
C1734       C  0.20264274  0.51536620  0.70520711    -0.30500
N1735       N  0.23351057  0.51899077  0.69680233     0.14500
H1736       H  0.19917819  0.99754788  0.72529134     0.17100
C1737       C  0.22892077  0.54482664  0.67255301    -0.30500
H1738       H  0.25005246  0.55446464  0.66298832     0.17100
H1739       H  0.13235182  0.56015409  0.55516323     0.17100
H1740       H  0.12191399  0.59615625  0.73510698     0.17200
H1741       H  0.08389509  0.50100420  0.61869005     0.17100
O1742       O  0.28871992  0.68194990  0.60511836    -0.80800
C1743       C  0.36750376  0.72698202  0.75306523     0.98600
O1744       O  0.35004122  0.70092780  0.74260635    -0.69900
O1745       O  0.28905166  0.72444346  0.70036774    -0.73500
Al1746     Al  0.31797212  0.68896597  0.69531844     1.49000
C1747       C  0.26733105  0.74024256  0.67367328     0.93800
O1748       O  0.31306672  0.77131628  0.63124400    -0.79700
O1749       O  0.39017771  0.71589486  0.63761475    -0.73300
Al1750     Al  0.30409464  0.72636106  0.62146658     1.90100
O1751       O  0.36878467  0.77321910  0.66682933    -0.72300
O1752       O  0.39746691  0.68344204  0.70367005    -0.72200
O1753       O  0.37701213  0.74354358  0.72960785    -0.77900
O1754       O  0.34780775  0.65357052  0.69197433    -0.76100
O1755       O  0.33448049  0.71395089  0.66585034    -1.12200
O1756       O  0.27973492  0.66889678  0.65762661    -0.71400
C1757       C  0.27228922  0.66532584  0.62283546     0.99300
C1758       C  0.33925251  0.78760467  0.65077173     0.95700
Al1759     Al  0.37976056  0.72757452  0.68256823     1.55600
O1760       O  0.26514362  0.73442143  0.63998992    -0.76000
C1761       C  0.38150540  0.65594477  0.70460393     0.99900
C1762       C  0.37050593  0.71876428  0.60399150     0.94800
O1763       O  0.33733476  0.72272238  0.59578689    -0.81300
C1764       C  0.30689055  0.82995757  0.91111693     0.31000
C1765       C  0.34320264  0.79158056  0.87474669     0.31000
C1766       C  0.31735687  0.84740796  0.87961085    -0.05200
C1767       C  0.34327685  0.81662481  0.93622770    -0.06000
C1768       C  0.28868809  0.79712893  0.89385364    -0.05800
C1769       C  0.33513157  0.82790257  0.86056476    -0.05200
C1770       C  0.36194588  0.79642569  0.91727217    -0.06000
C1771       C  0.30562609  0.77885056  0.87326853    -0.05800
C1772       C  0.34550115  0.84922566  0.83681434    -0.31200
N1773       N  0.33818191  0.88115173  0.84388433     0.15300
C1774       C  0.32052060  0.88035584  0.86969960    -0.31200
H1775       H  0.31044609  0.90209309  0.88032519     0.17200
C1776       C  0.38140999  0.77345383  0.94313340    -0.30200
N1777       N  0.37654726  0.77936362  0.97661387     0.14000
C1778       C  0.35263629  0.80459082  0.97239012    -0.30200
C1779       C  0.28147546  0.75428314  0.85544468    -0.30500
N1780       N  0.25195249  0.75594409  0.86698892     0.14500
H1781       H  0.28420561  0.73746567  0.83396907     0.17100
C1782       C  0.25692622  0.78112048  0.89178845    -0.30500
H1783       H  0.23745743  0.78861322  0.90514744     0.17100
H1784       H  0.33896512  0.81040315  0.99254055     0.17100
H1785       H  0.35742700  0.84243020  0.81556023     0.17200
H1786       H  0.39417780  0.75128729  0.93673341     0.17100
O1787       O  0.19014324  0.93425557  0.95112542    -0.80800
C1788       C  0.11573017  0.98299749  0.80333431     0.98600
O1789       O  0.13627287  0.95912813  0.81533764    -0.69900
O1790       O  0.19288438  0.98745193  0.86246726    -0.73500
Al1791     Al  0.16671044  0.94907130  0.86333553     1.49000
C1792       C  0.21448412  0.00003649  0.89174063     0.93800
O1793       O  0.16031556  0.52392556  0.93472627    -0.79700
O1794       O  0.08686291  0.97031746  0.91554969    -0.73300
Al1795     Al  0.17268681  0.97918807  0.93917504     1.90100
O1796       O  0.10934136  0.52673949  0.88889501    -0.72300
O1797       O  0.08682426  0.93690717  0.85246357    -0.72200
O1798       O  0.10340285  0.99835717  0.82567955    -0.77900
O1799       O  0.13953512  0.91099393  0.86298815    -0.76100
O1800       O  0.14582346  0.96982495  0.89217989    -1.12200
O1801       O  0.20591635  0.93088084  0.90087313    -0.71400
C1802       C  0.20848169  0.92072987  0.93307178     0.99300
C1803       C  0.13615356  0.54052035  0.91186972     0.95700
Al1804     Al  0.10023508  0.98177515  0.87266741     1.55600
O1805       O  0.21309983  0.49304775  0.92426646    -0.76000
C1806       C  0.10556961  0.91082422  0.85178766     0.99900
C1807       C  0.10418032  0.96870582  0.94992105     0.94800
O1808       O  0.13767121  0.46933663  0.96129140    -0.81300
O1809       O  0.07924210  0.69950098  0.76354744    -0.80800
C1810       C  0.21890117  0.73845029  0.84999910     0.98600
O1811       O  0.19146015  0.74272496  0.86048605    -0.69900
O1812       O  0.13601556  0.77536759  0.81964433    -0.73500
Al1813     Al  0.14075552  0.73155497  0.83667291     1.49000
C1814       C  0.10758347  0.78492880  0.79609517     0.93800
O1815       O  0.14377445  0.75388597  0.73832420    -0.79700
O1816       O  0.15444096  0.65786152  0.76516942    -0.73300
Al1817     Al  0.11234025  0.72644841  0.75118582     1.90100
O1818       O  0.18833183  0.71668976  0.75271945    -0.72300
O1819       O  0.18254404  0.66393866  0.83632464    -0.72200
O1820       O  0.21738604  0.71969753  0.82311697    -0.77900
O1821       O  0.14481765  0.69047076  0.85879467    -0.76100
O1822       O  0.14569628  0.71624513  0.79466134    -1.12200
O1823       O  0.08840033  0.72267238  0.81947606    -0.71400
C1824       C  0.06806149  0.70748905  0.79054361     0.99300
C1825       C  0.17404042  0.74420032  0.73800921     0.95700
Al1826     Al  0.18276788  0.69140745  0.79434847     1.55600
O1827       O  0.09258303  0.76649887  0.76834269    -0.76000
C1828       C  0.16275607  0.66512512  0.85711649     0.99900
C1829       C  0.13820486  0.66216575  0.73122820     0.94800
O1830       O  0.12290242  0.68988782  0.72057586    -0.81300
O1831       O  0.40279639  0.94802050  0.79216881    -0.80800
C1832       C  0.26503949  0.99857708  0.71253771     0.98600
O1833       O  0.29099989  0.99797605  0.69926096    -0.69900
O1834       O  0.34771524  0.52745522  0.74150777    -0.73500
Al1835     Al  0.34120786  0.98418851  0.72262020     1.49000
C1836       C  0.37642082  0.53517153  0.76587307     0.93800
O1837       O  0.34092458  0.50160661  0.82559713    -0.79700
O1838       O  0.32222341  0.90881954  0.78722615    -0.73300
Al1839     Al  0.37049283  0.97443794  0.80792215     1.90100
O1840       O  0.29467013  0.96735544  0.80892756    -0.72300
O1841       O  0.29276492  0.92212261  0.71768820    -0.72200
O1842       O  0.26600309  0.98059865  0.73991832    -0.77900
O1843       O  0.33635105  0.94252230  0.70012221    -0.76100
O1844       O  0.33600582  0.96830589  0.76436784    -1.12200
O1845       O  0.39260678  0.97425755  0.73813146    -0.71400
C1846       C  0.41335911  0.95766476  0.76538675     0.99300
C1847       C  0.31091013  0.99253729  0.82692783     0.95700
Al1848     Al  0.29693470  0.94647342  0.76338881     1.55600
O1849       O  0.39034287  0.51552981  0.79308931    -0.76000
C1850       C  0.31551351  0.91920930  0.70036529     0.99900
C1851       C  0.34051028  0.90929186  0.82098546     0.94800
O1852       O  0.35887887  0.93501662  0.83424821    -0.81300
C1853       C  0.08639546  0.84373463  0.78080908     0.24600
C1854       C  0.09165051  0.81604348  0.80458120    -0.23500
C1855       C  0.09034428  0.82028845  0.84137347     0.19500
C1856       C  0.08961512  0.85213715  0.85601645     0.24600
C1857       C  0.08894008  0.88007432  0.83370285    -0.23400
C1858       C  0.08487539  0.87574328  0.79535717     0.19500
F1859       F  0.08447428  0.90265552  0.77340320    -0.13400
F1860       F  0.08732469  0.84025114  0.74519884    -0.15800
F1861       F  0.09410944  0.85576569  0.89313399    -0.15800
F1862       F  0.09390168  0.79364305  0.86449164    -0.13400
C1863       C  0.17843092  0.58679634  0.91466474     0.24600
C1864       C  0.14280746  0.57603199  0.90788625    -0.23500
C1865       C  0.11458825  0.59719883  0.88905978     0.19500
C1866       C  0.12166337  0.62703241  0.87415785     0.24600
C1867       C  0.15699172  0.63584559  0.87734090    -0.23400
C1868       C  0.18537993  0.61625682  0.89873537     0.19500
F1869       F  0.21965005  0.62518805  0.90338642    -0.13400
F1870       F  0.20666763  0.56755810  0.93384709    -0.15800
F1871       F  0.09373916  0.64603063  0.85387207    -0.15800
F1872       F  0.08014300  0.58801588  0.88292225    -0.13400
C1873       C  0.23918518  0.03440945  0.85262969     0.24600
C1874       C  0.24458948  0.01829709  0.88714091    -0.23500
C1875       C  0.27878618  0.00646636  0.90728929     0.19500
C1876       C  0.30381866  0.00198314  0.88853720     0.24600
C1877       C  0.29464326  0.01062966  0.85064071    -0.23400
C1878       C  0.26401607  0.02967557  0.83377125     0.19500
F1879       F  0.25579670  0.03915637  0.79735863    -0.13400
F1880       F  0.20686796  0.04802861  0.83397296    -0.15800
F1881       F  0.33413217  0.98432246  0.90519533    -0.15800
F1882       F  0.28513768  0.99252021  0.94166995    -0.13400
C1883       C  0.24538417  0.85249223  0.90351210     0.24600
C1884       C  0.28170619  0.85136689  0.92546789    -0.23500
C1885       C  0.29240671  0.87207064  0.95739649     0.19500
C1886       C  0.26695615  0.89323894  0.96559811     0.24600
C1887       C  0.23038581  0.89070138  0.94475158    -0.23400
C1888       C  0.22002018  0.86585160  0.91765184     0.19500
F1889       F  0.18506183  0.86221097  0.89741729    -0.13400
F1890       F  0.23422263  0.84203289  0.86727473    -0.15800
F1891       F  0.27823792  0.91810186  0.99098273    -0.15800
F1892       F  0.32747198  0.87529514  0.97715476    -0.13400
C1893       C  0.40182503  0.62478764  0.76388269     0.24600
C1894       C  0.40030146  0.62702761  0.72592046    -0.23500
C1895       C  0.40180266  0.59776190  0.70629110     0.19500
C1896       C  0.39954523  0.56686901  0.72237205     0.24600
C1897       C  0.39470641  0.56488666  0.75793914    -0.23400
C1898       C  0.39837939  0.59380276  0.77968429     0.19500
F1899       F  0.39399111  0.59262576  0.81406323    -0.13400
F1900       F  0.40108660  0.65289654  0.78374532    -0.15800
F1901       F  0.39746179  0.53906020  0.70120770    -0.15800
F1902       F  0.40029926  0.59924179  0.66974752    -0.13400
C1903       C  0.29803465  0.83527657  0.65233248     0.24600
C1904       C  0.33327067  0.82330151  0.65782457    -0.23500
C1905       C  0.36200833  0.84437052  0.67503596     0.19500
C1906       C  0.35582100  0.87608537  0.68728926     0.24600
C1907       C  0.32075465  0.88731282  0.68310553    -0.23400
C1908       C  0.29199029  0.86672894  0.66532508     0.19500
F1909       F  0.25800886  0.87681877  0.66107860    -0.13400
F1910       F  0.26916970  0.81594006  0.63626620    -0.15800
F1911       F  0.38443966  0.89494901  0.70564222    -0.15800
F1912       F  0.39620763  0.83391009  0.68133319    -0.13400
C1913       C  0.39101538  0.76901968  0.80494700     0.24600
C1914       C  0.37399963  0.73858506  0.79214772    -0.23500
C1915       C  0.36011258  0.72052178  0.81659550     0.19500
C1916       C  0.35629526  0.73582749  0.84848309     0.24600
C1917       C  0.36401403  0.76983783  0.85490365    -0.23400
C1918       C  0.38760482  0.78363880  0.83757869     0.19500
F1919       F  0.40689977  0.81115379  0.85191662    -0.13400
F1920       F  0.40935322  0.78528980  0.78524313    -0.15800
F1921       F  0.34412444  0.71769176  0.87234777    -0.15800
F1922       F  0.34803188  0.68891829  0.80862681    -0.13400
C1923       C  0.36633505  0.71027288  0.53766448     0.24600
C1924       C  0.38552577  0.72305181  0.57310759    -0.23500
C1925       C  0.40862012  0.75006420  0.57527018     0.19500
C1926       C  0.40807512  0.76717857  0.54267518     0.24600
C1927       C  0.38536989  0.75683362  0.50772577    -0.23400
C1928       C  0.36620729  0.72715398  0.50513006     0.19500
F1929       F  0.34389132  0.71701799  0.47151591    -0.13400
F1930       F  0.34384197  0.68422912  0.53484731    -0.15800
F1931       F  0.42686550  0.79578220  0.04544309    -0.15800
F1932       F  0.42717970  0.76315661  0.60905447    -0.13400
C1933       C  0.25191760  0.77563154  0.71916327     0.24600
C1934       C  0.24250171  0.76321601  0.68244226    -0.23500
C1935       C  0.20645059  0.76202153  0.66067587     0.19500
C1936       C  0.18087819  0.76188956  0.67898760     0.24600
C1937       C  0.19225520  0.76401850  0.71809889    -0.23400
C1938       C  0.22653929  0.77512939  0.73756764     0.19500
F1939       F  0.23673061  0.77955818  0.77525389    -0.13400
F1940       F  0.28666607  0.78098408  0.73915777    -0.15800
F1941       F  0.14682601  0.75308661  0.65988149    -0.15800
F1942       F  0.19667237  0.75422093  0.62372969    -0.13400
C1943       C  0.21640952  0.58949785  0.60287721     0.24600
C1944       C  0.18757130  0.60296285  0.61315464    -0.23500
C1945       C  0.18034407  0.63703431  0.60600503     0.19500
C1946       C  0.20724011  0.65804654  0.60241719     0.24600
C1947       C  0.24085761  0.64490668  0.60418930    -0.23400
C1948       C  0.24422942  0.61035791  0.60090834     0.19500
F1949       F  0.27541095  0.59682041  0.59948926    -0.13400
F1950       F  0.21874947  0.55626236  0.59721616    -0.15800
F1951       F  0.20196554  0.69144967  0.60181417    -0.15800
F1952       F  0.14793807  0.65010589  0.60380414    -0.13400
C1953       C  0.09364633  0.53684544  0.71654341     0.24600
C1954       C  0.11860460  0.52357212  0.70028751    -0.23500
C1955       C  0.12864562  0.99013687  0.70841314     0.19500
C1956       C  0.12505649  0.97544218  0.74068133     0.24600
C1957       C  0.10922414  0.99346329  0.76384223    -0.23400
C1958       C  0.09030529  0.52275946  0.74937256     0.19500
F1959       F  0.06992854  0.53840406  0.76754362    -0.13400
F1960       F  0.07247204  0.56309536  0.70068124    -0.15800
F1961       F  0.13908318  0.94451003  0.75026102    -0.15800
F1962       F  0.14356733  0.97230633  0.68634977    -0.13400
C1963       C  0.10034276  0.97368030  0.54612988     0.24600
C1964       C  0.08650335  0.50618768  0.54433769    -0.23500
C1965       C  0.06739939  0.51971556  0.50937996     0.19500
C1966       C  0.06651998  0.50296854  0.97645869     0.24600
C1967       C  0.08613251  0.47321219  0.97840050    -0.23400
C1968       C  0.10041362  0.95733183  0.51325374     0.19500
F1969       F  0.11909811  0.92842106  0.51580773    -0.13400
F1970       F  0.11851077  0.95997382  0.57973232    -0.15800
F1971       F  0.05234266  0.51891237  0.94319292    -0.15800
F1972       F  0.05338698  0.55091015  0.50721790    -0.13400
C1973       C  0.00486451  0.70947394  0.74911500     0.24600
C1974       C  0.02941800  0.70318644  0.78488973    -0.23500
C1975       C  0.01629592  0.69504799  0.81435079     0.19500
C1976       C  0.97936804  0.69396191  0.80839013     0.24600
C1977       C  0.95475719  0.70251488  0.77310488    -0.23400
C1978       C  0.96812657  0.70936858  0.74335957     0.19500
F1979       F  0.94583252  0.71769132  0.70892590    -0.13400
F1980       F  0.01640374  0.71823132  0.71999181    -0.15800
F1981       F  0.96796966  0.68620809  0.83788036    -0.15800
F1982       F  0.03910540  0.68882562  0.84910981    -0.13400
C1983       C  0.49895740  0.95368390  0.73990458     0.24600
C1984       C  0.52497468  0.95821856  0.77526301    -0.23500
C1985       C  0.51392613  0.95863989  0.80736053     0.19500
C1986       C  0.47772601  0.95623673  0.80413474     0.24600
C1987       C  0.45159755  0.95367164  0.76866152    -0.23400
C1988       C  0.46265485  0.95182653  0.73667139     0.19500
F1989       F  0.43821937  0.94936934  0.70208746    -0.13400
F1990       F  0.50822635  0.95326360  0.70802869    -0.15800
F1991       F  0.46814378  0.95911543  0.83570251    -0.15800
F1992       F  0.53799896  0.96271981  0.84192073    -0.13400
C1993       C  0.90983262  0.85659839  0.70889578     0.24600
C1994       C  0.90585018  0.88480805  0.72913304    -0.23500
C1995       C  0.90573572  0.88101061  0.76639968     0.19500
C1996       C  0.90387588  0.84918913  0.78096431     0.24600
C1997       C  0.90244985  0.82112711  0.75840287    -0.23400
C1998       C  0.90836539  0.82487108  0.72354531     0.19500
F1999       F  0.90810167  0.79784277  0.70166781    -0.13400
F2000       F  0.91015450  0.85972357  0.67304840    -0.15800
F2001       F  0.89826611  0.84613549  0.81464418    -0.15800
F2002       F  0.90172942  0.90806911  0.78648173    -0.13400
C2003       C  0.82737039  0.61424335  0.71402465     0.24600
C2004       C  0.81929014  0.64134974  0.68927927    -0.23500
C2005       C  0.82194963  0.63744399  0.65297825     0.19500
C2006       C  0.83228849  0.60658239  0.64173011     0.24600
C2007       C  0.84197377  0.58013997  0.66742762    -0.23400
C2008       C  0.83902063  0.58424016  0.70338122     0.19500
F2009       F  0.84618199  0.55860519  0.72802867    -0.13400
F2010       F  0.82577359  0.61720578  0.74941588    -0.15800
F2011       F  0.83314356  0.60257063  0.60615647    -0.15800
F2012       F  0.81438677  0.66337705  0.62857673    -0.13400
C2013       C  0.70779161  0.01760599  0.65264522     0.24600
C2014       C  0.74264902  0.01801559  0.67790895    -0.23500
C2015       C  0.74889036  0.03226976  0.71348000     0.19500
C2016       C  0.72022407  0.03817217  0.72653912     0.24600
C2017       C  0.68627074  0.02784793  0.70474005    -0.23400
C2018       C  0.67919878  0.02198377  0.66644375     0.19500
F2019       F  0.64580262  0.01372836  0.64463901    -0.13400
F2020       F  0.70127217  0.00791711  0.61659924    -0.15800
F2021       F  0.72646924  0.04665357  0.76298433    -0.15800
F2022       F  0.78258019  0.03567511  0.73735901    -0.13400
C2023       C  0.71661824  0.91696211  0.59732491     0.24600
C2024       C  0.75042240  0.90360394  0.60043855    -0.23500
C2025       C  0.75387028  0.86888315  0.59948534     0.19500
C2026       C  0.72608196  0.84862954  0.60275407     0.24600
C2027       C  0.69750399  0.86303011  0.61277209    -0.23400
C2028       C  0.69021796  0.89685187  0.60368221     0.19500
F2029       F  0.65791211  0.91043947  0.60086535    -0.13400
F2030       F  0.71082874  0.95015395  0.59275132    -0.15800
F2031       F  0.72819909  0.81517173  0.59851091    -0.15800
F2032       F  0.78504144  0.85477644  0.59884237    -0.13400
C2033       C  0.56752994  0.61216589  0.83279773     0.24600
C2034       C  0.57594622  0.64063949  0.81595295    -0.23500
C2035       C  0.57935331  0.63793282  0.77978356     0.19500
C2036       C  0.58088531  0.60654752  0.76391521     0.24600
C2037       C  0.57761504  0.57777797  0.78350059    -0.23400
C2038       C  0.56778751  0.58090284  0.81631426     0.19500
F2039       F  0.56331788  0.55324291  0.83505523    -0.13400
F2040       F  0.56356933  0.61413296  0.86732662    -0.15800
F2041       F  0.59051944  0.60420630  0.73233734    -0.15800
F2042       F  0.58657203  0.66527942  0.76235340    -0.13400
C2043       C  0.67977386  0.84663722  0.89385056     0.24600
C2044       C  0.64490518  0.83467724  0.88925949    -0.23500
C2045       C  0.61577707  0.85631099  0.87436994     0.19500
C2046       C  0.62114192  0.88832687  0.86255424     0.24600
C2047       C  0.65571361  0.89925997  0.86482748    -0.23400
C2048       C  0.68497675  0.87839852  0.88129985     0.19500
F2049       F  0.71860940  0.88847260  0.88452641    -0.13400
F2050       F  0.70898976  0.82699882  0.90850448    -0.15800
F2051       F  0.59208650  0.90774859  0.84632343    -0.15800
F2052       F  0.58193244  0.84616541  0.86996460    -0.13400
C2053       C  0.62952266  0.73338801  0.73407853     0.24600
C2054       C  0.61221926  0.75028467  0.75662141    -0.23500
C2055       C  0.59382135  0.77998872  0.74263335     0.19500
C2056       C  0.59892760  0.79543922  0.71132502     0.24600
C2057       C  0.62494700  0.78304538  0.69605288    -0.23400
C2058       C  0.63471501  0.74936919  0.70318443     0.19500
F2059       F  0.65093071  0.73250833  0.68157960    -0.13400
F2060       F  0.64324694  0.70226668  0.74292243    -0.15800
F2061       F  0.57745358  0.82139390  0.69514034    -0.15800
F2062       F  0.57164193  0.79440939  0.75952592    -0.13400
C2063       C  0.57236343  0.76819509  0.97160827     0.24600
C2064       C  0.58813815  0.73692263  0.97033400    -0.23500
C2065       C  0.60319201  0.71920006  0.50392225     0.19500
C2066       C  0.60695309  0.73451320  0.53843268     0.24600
C2067       C  0.59604676  0.76776254  0.53953018    -0.23400
C2068       C  0.57690624  0.78376860  0.50607260     0.19500
F2069       F  0.56631112  0.81593303  0.50678060    -0.13400
F2070       F  0.55862595  0.78618965  0.93969944    -0.15800
F2071       F  0.62577747  0.71871073  0.57051110    -0.15800
F2072       F  0.61937632  0.68930570  0.50339503    -0.13400
C2073       C  0.77797748  0.76455881  0.89734165     0.24600
C2074       C  0.74283090  0.76598713  0.87288034    -0.23500
C2075       C  0.73551196  0.78282998  0.83860680     0.19500
C2076       C  0.76356456  0.79056680  0.82526478     0.24600
C2077       C  0.79796616  0.77961593  0.84554575    -0.23400
C2078       C  0.80593148  0.77176369  0.88351837     0.19500
F2079       F  0.83978107  0.76325069  0.90410095    -0.13400
F2080       F  0.78552353  0.75132750  0.93209340    -0.15800
F2081       F  0.75629136  0.80091026  0.78925903    -0.15800
F2082       F  0.70137314  0.78760970  0.81615015    -0.13400
C2083       C  0.75506392  0.59735830  0.94781832     0.24600
C2084       C  0.78408242  0.61171660  0.93896494    -0.23500
C2085       C  0.79151994  0.64521088  0.94936292     0.19500
C2086       C  0.76504153  0.66531375  0.95618183     0.24600
C2087       C  0.73081477  0.65244045  0.95089729    -0.23400
C2088       C  0.72692589  0.61779729  0.95037152     0.19500
F2089       F  0.69505791  0.60408921  0.94852910    -0.13400
F2090       F  0.75252726  0.56382597  0.95070507    -0.15800
F2091       F  0.77115837  0.69820350  0.96307889    -0.15800
F2092       F  0.82390472  0.65847954  0.95278610    -0.13400
C2093       C  0.85164064  0.98238872  0.81518777     0.24600
C2094       C  0.87042025  0.99835845  0.79366798    -0.23500
C2095       C  0.88832082  0.52809774  0.80780392     0.19500
C2096       C  0.88229176  0.54401488  0.83859798     0.24600
C2097       C  0.85589548  0.53210384  0.85345683    -0.23400
C2098       C  0.84567600  0.99870087  0.84565642     0.19500
F2099       F  0.82859102  0.98224486  0.86649726    -0.13400
F2100       F  0.83736839  0.95169053  0.80581168    -0.15800
F2101       F  0.90370772  0.56968028  0.85506021    -0.15800
F2102       F  0.91103018  0.54213371  0.79157087    -0.13400
C2103       C  0.87755045  0.98258520  0.51186057     0.24600
C2104       C  0.88721271  0.51609561  0.51098357    -0.23500
C2105       C  0.90642585  0.53183966  0.54456701     0.19500
C2106       C  0.91220831  0.51558574  0.57891963     0.24600
C2107       C  0.89733705  0.48401959  0.58003237    -0.23400
C2108       C  0.88262159  0.96660571  0.54624709     0.19500
F2109       F  0.86799481  0.93613949  0.54659881    -0.13400
F2110       F  0.85868277  0.96699422  0.47976433    -0.15800
F2111       F  0.92647783  0.53301370  0.61110599    -0.15800
F2112       F  0.91623825  0.56414901  0.54422528    -0.13400
loop_ 
_geom_bond_atom_site_label_1 
_geom_bond_atom_site_label_2 
_geom_bond_distance 
_geom_bond_site_symmetry_2 
_ccdc_geom_bond_type 
C1            C3   1.566       .  S
C1            C5   1.558       .  S
C1            C4   1.534       .  S
C1          C500   1.541       .  S
C2            C6   1.550       .  S
C2            C8   1.552       .  S
C2            C7   1.534       .  S
C2          C513   1.544       .  S
C3           C11   1.399       .  A
C3            C6   1.401       .  A
C4           C15   1.375       .  A
C4            C7   1.394       .  A
C5           C19   1.400       .  A
C5            C8   1.392       .  A
C6            C9   1.384       .  A
C7           C13   1.380       .  A
C8           C16   1.383       .  A
C9           N10   1.351       .  A
C9           H22   1.080       .  S
N10          C11   1.363       .  A
N10         C133   1.440       .  S
C11          H12   1.081       .  S
C13          N14   1.359       .  A
C13          H23   1.082       .  S
N14          C15   1.359       .  A
N14        C1048   1.437       .  S
C15          H21   1.083       .  S
C16          N17   1.360       .  A
C16        H1074   1.081       .  S
N17          C19   1.355       .  A
N17        C1148   1.448       .  S
H18        C1072   1.081       .  S
C19          H20   1.080       .  S
O24          C39   1.259       .  A
O24         Al32   1.915       .  S
C25          O35   1.258       .  A
C25          O26   1.253       .  A
C25         C470   1.487       .  S
O26         Al28   1.897       .  S
O27          C29   1.263       .  A
O27         Al28   1.878       .  S
Al28         O36   1.876       .  S
Al28         O38   1.900       .  S
Al28         O37   1.769       .  S
C29          O42   1.259       .  A
C29         C490   1.454       .  S
O30          C40   1.252       .  A
O30         Al32   1.859       .  S
O31          C44   1.265       .  A
O31         Al41   1.923       .  S
Al32         O45   1.857       .  S
Al32         O42   1.898       .  S
Al32         O37   1.793       .  S
O33          C40   1.268       .  A
O33         Al41   1.938       .  S
O34          C43   1.276       .  A
O34         Al41   1.968       .  S
O35         Al41   1.914       .  S
O36          C43   1.265       .  A
O37         Al41   1.790       .  S
O38          C39   1.258       .  A
C39         C503   1.468       .  S
C40         C460   1.488       .  S
C43         C450   1.473       .  S
C44          O45   1.254       .  A
C44         C480   1.464       .  S
C46          C48   1.567       .  S
C46          C50   1.558       .  S
C46          C49   1.534       .  S
C46         C443   1.543       .  S
C47          C51   1.548       .  S
C47          C53   1.549       .  S
C47          C52   1.530       .  S
C47         C473   1.540       .  S
C48          C56   1.399       .  A
C48          C51   1.400       .  A
C49          C60   1.373       .  A
C49          C52   1.394       .  A
C50          C64   1.400       .  A
C50          C53   1.393       .  A
C51          C54   1.385       .  A
C52          C58   1.378       .  A
C53          C61   1.380       .  A
C54          N55   1.350       .  A
C54          H67   1.081       .  S
N55          C56   1.362       .  A
N55         C111   1.440       .  S
C56          H57   1.081       .  S
C58          N59   1.357       .  A
C58          H68   1.082       .  S
N59          C60   1.359       .  A
N59         C483   1.433       .  S
C60          H66   1.083       .  S
C61          N62   1.358       .  A
C61          H63   1.081       .  S
N62          C64   1.356       .  A
N62         C114   1.445       .  S
C64          H65   1.080       .  S
O69          C84   1.261       .  A
O69         Al77   1.926       .  S
C70          O80   1.257       .  A
C70          O71   1.250       .  A
C70         C510   1.493       .  S
O71         Al73   1.895       .  S
O72          C74   1.263       .  A
O72         Al73   1.875       .  S
Al73         O81   1.870       .  S
Al73         O83   1.892       .  S
Al73         O82   1.771       .  S
C74        O1143   1.261       .  A
C74         C430   1.456       .  S
O75          C85   1.252       .  A
O75       Al1133   1.867   1_545  S
O76          C89   1.265       .  A
O76         Al86   1.926       .  S
Al77       O1131   1.867       .  S
Al77       O1146   1.857       .  S
Al77       O1143   1.901       .  S
Al77         O82   1.799       .  S
O78          C85   1.265       .  A
O78       Al1142   1.918   1_545  S
O79          C88   1.276       .  A
O79         Al86   1.960       .  S
O80         Al86   1.920       .  S
O81          C88   1.265       .  A
O82         Al86   1.793       .  S
O83          C84   1.256       .  A
C84         C440   1.472       .  S
C85         C423   1.466       .  S
Al86       O1134   1.918       .  S
O87        C1130   1.261       .  A
O87       Al1133   1.901       .  S
C88         C410   1.467       .  S
C89        O1146   1.254       .  A
C89        C1579   1.468       .  S
O90        C1145   1.254       .  A
O90       Al1133   1.857       .  S
O91         C106   1.268       .  A
O91         Al99   1.883       .  S
C92        N1073   1.448       .  S
C92         O102   1.248       .  A
C92          O93   1.272       .  A
O93         Al95   1.974       .  S
O94          C96   1.251       .  A
O94       Al1151   1.863   1_545  S
Al95        O103   1.865       .  S
Al95        O105   1.964       .  S
Al95       O1150   1.863       .  S
Al95        O104   1.766       .  S
C96         O109   1.265       .  A
C96         C453   1.472       .  S
O97        C1163   1.258       .  A
O97       Al1155   1.864   1_545  S
O98         C111   1.249       .  A
O98        Al108   1.875       .  S
Al99        O112   1.985       .  S
Al99       O1153   1.864       .  S
Al99       O1165   1.968       .  S
Al99        O104   1.794       .  S
O100        C107   1.276       .  A
O100       Al108   1.920       .  S
O101        C110   1.265       .  A
O101       Al108   1.928       .  S
O102       Al108   1.852       .  S
O103        C110   1.252       .  A
O104       Al108   1.770       .  S
O105        C106   1.281       .  A
C106        C400   1.486       .  S
C107       O1153   1.258       .  A
C107        C433   1.442       .  S
O109      Al1155   1.968   1_545  S
C110        C463   1.479       .  S
C111        O112   1.269       .  A
O113        C128   1.266       .  A
O113       Al121   1.881       .  S
C114        O124   1.247       .  A
C114        O115   1.271       .  A
O115       Al117   1.971       .  S
O116        C118   1.250       .  A
O116       Al117   1.858       .  S
Al117       O125   1.869       .  S
Al117       O127   1.965       .  S
Al117       O126   1.774       .  S
C118        O131   1.265       .  A
C118        C413   1.471       .  S
O119        C129   1.257       .  A
O119       Al121   1.867       .  S
O120        C133   1.247       .  A
O120       Al130   1.867       .  S
Al121       O134   1.988       .  S
Al121       O131   1.965       .  S
Al121       O126   1.794       .  S
O122        C129   1.274       .  A
O122       Al130   1.913       .  S
O123        C132   1.264       .  A
O123       Al130   1.919       .  S
O124       Al130   1.844       .  S
O125        C132   1.252       .  A
O126       Al130   1.770       .  S
O127        C128   1.281       .  A
C128        C393   1.491       .  S
C129        C493   1.443       .  S
C132        C420   1.470       .  S
C133        O134   1.269       .  A
C135        C137   1.566       .  S
C135        C139   1.558       .  S
C135        C138   1.537       .  S
C135        C360   1.542       .  S
C136        C140   1.545       .  S
C136        C142   1.551       .  S
C136        C141   1.529       .  S
C136        C370   1.538       .  S
C137        C145   1.399       .  A
C137        C140   1.398       .  A
C138        C149   1.374       .  A
C138        C141   1.395       .  A
C139        C153   1.400       .  A
C139        C142   1.393       .  A
C140        C143   1.382       .  A
C141        C147   1.378       .  A
C142        C150   1.384       .  A
C143        N144   1.350       .  A
C143        H156   1.081       .  S
N144        C145   1.362       .  A
N144        C245   1.439       .  S
C145        H146   1.081       .  S
C147        N148   1.357       .  A
C147        H157   1.082       .  S
N148        C149   1.360       .  A
N148        C380   1.434       .  S
C149        H155   1.083       .  S
C150        N151   1.359       .  A
C150       H1208   1.081   1_545  S
N151        C153   1.355       .  A
N151       C1304   1.447   1_545  S
H152       C1206   1.081       .  S
C153        H154   1.080       .  S
O158        C173   1.260       .  A
O158       Al166   1.924       .  S
C159        O169   1.254       .  A
C159        O160   1.250       .  A
C159        C330   1.485       .  S
O160       Al162   1.894       .  S
O161        C163   1.265       .  A
O161       Al162   1.865       .  S
Al162       O170   1.867       .  S
Al162       O172   1.898       .  S
Al162       O171   1.767       .  S
C163        O176   1.263       .  A
C163        C350   1.451       .  S
O164        C174   1.251       .  A
O164       Al166   1.855       .  S
O165        C178   1.264       .  A
O165       Al175   1.917       .  S
Al166       O179   1.860       .  S
Al166       O176   1.900       .  S
Al166       O171   1.791       .  S
O167        C174   1.267       .  A
O167       Al175   1.931       .  S
O168        C177   1.280       .  A
O168       Al175   1.974       .  S
O169       Al175   1.914       .  S
O170        C177   1.267       .  A
O171       Al175   1.786       .  S
O172        C173   1.255       .  A
C173        C363   1.472       .  S
C174        C320   1.487       .  S
C177        C310   1.469       .  S
C178        O179   1.255       .  A
C178        C340   1.470       .  S
C180        C182   1.542       .  S
C180        C184   1.546       .  S
C180        C183   1.542       .  S
C180        C300   1.529       .  S
C181        C185   1.550       .  S
C181        C187   1.555       .  S
C181        C186   1.549       .  S
C181        C333   1.537       .  S
C182        C190   1.392       .  A
C182        C185   1.386       .  A
C183        C194   1.380       .  A
C183        C186   1.423       .  A
C184        C198   1.392       .  A
C184        C187   1.378       .  A
C185        C188   1.391       .  A
C186        C192   1.382       .  A
C187        C195   1.392       .  A
C188        N189   1.356       .  A
C188        H201   1.080       .  S
N189        C190   1.361       .  A
N189        C267   1.442       .  S
C190        H191   1.083       .  S
C192        N193   1.351       .  A
C192        H202   1.083       .  S
N193        C194   1.354       .  A
N193        C871   1.432       .  S
C194        H200   1.083       .  S
C195        N196   1.365       .  A
C195        H197   1.082       .  S
N196        C198   1.347       .  A
N196        C226   1.445       .  S
C198        H199   1.082       .  S
O203        C218   1.257       .  A
O203       Al211   1.929       .  S
C204        O214   1.254       .  A
C204        O205   1.241       .  A
C204        C373   1.486       .  S
O205       Al207   1.870       .  S
O206        C208   1.268       .  A
O206       Al207   1.867       .  S
Al207       O215   1.871       .  S
Al207       O217   1.880       .  S
Al207       O216   1.759       .  S
C208       O1277   1.273       .  A
C208        C290   1.455       .  S
O209        C219   1.253       .  A
O209      Al1267   1.852   1_545  S
O210        C223   1.260       .  A
O210       Al220   1.905       .  S
Al211      O1265   1.852       .  S
Al211      O1280   1.866       .  S
Al211      O1277   1.933       .  S
Al211       O216   1.793       .  S
O212        C219   1.266       .  A
O212      Al1276   1.904   1_545  S
O213        C222   1.282       .  A
O213       Al220   1.964       .  S
O214       Al220   1.929       .  S
O215        C222   1.272       .  A
O216       Al220   1.778       .  S
O217        C218   1.251       .  A
C218        C303   1.463       .  S
C219        C280   1.468       .  S
Al220      O1268   1.904       .  S
O221       C1264   1.273   1_565  A
O221      Al1267   1.933       .  S
C222        C273   1.464       .  S
C223       O1280   1.255       .  A
C223       C1439   1.470       .  S
O224       C1279   1.255       .  A
O224      Al1267   1.866       .  S
O225        C240   1.267       .  A
O225       Al233   1.869       .  S
C226        O236   1.245       .  A
C226        O227   1.273       .  A
O227       Al229   1.972       .  S
O228        C230   1.250       .  A
O228       Al229   1.861       .  S
Al229       O237   1.832       .  S
Al229       O239   1.995       .  S
Al229       O238   1.760       .  S
C230        O243   1.266       .  A
C230        C270   1.473       .  S
O231        C241   1.256       .  A
O231       Al233   1.839       .  S
O232        C245   1.247       .  A
O232       Al242   1.874       .  S
Al233       O246   1.984       .  S
Al233       O243   1.975       .  S
Al233       O238   1.793       .  S
O234        C241   1.281       .  A
O234       Al242   1.937       .  S
O235        C244   1.266       .  A
O235       Al242   1.929       .  S
O236       Al242   1.848       .  S
O237        C244   1.248       .  A
O238       Al242   1.767       .  S
O239        C240   1.286       .  A
C240        C390   1.483       .  S
C241        C353   1.434       .  S
C244        C283   1.458       .  S
C245        O246   1.266       .  A
O247        C262   1.266       .  A
O247       Al255   1.884       .  S
C248       N1207   1.447       .  S
C248        O258   1.249       .  A
C248        O249   1.272       .  A
O249       Al251   1.973       .  S
O250        C252   1.253       .  A
O250      Al1307   1.864   1_545  S
Al251       O259   1.857       .  S
Al251       O261   1.964       .  S
Al251      O1306   1.864       .  S
Al251       O260   1.766       .  S
C252        O265   1.271       .  A
C252        C313   1.477       .  S
O253       C1319   1.257   1_545  A
O253      Al1311   1.859   1_545  S
O254        C267   1.248       .  A
O254       Al264   1.873       .  S
Al255       O268   1.999       .  S
Al255      O1309   1.859       .  S
Al255      O1321   1.985       .  S
Al255       O260   1.788       .  S
O256        C263   1.275       .  A
O256       Al264   1.931       .  S
O257        C266   1.268       .  A
O257       Al264   1.937       .  S
O258       Al264   1.857       .  S
O259        C266   1.252       .  A
O260       Al264   1.768       .  S
O261        C262   1.278       .  A
C262        C403   1.482       .  S
C263       O1309   1.257       .  A
C263        C293   1.443       .  S
O265      Al1311   1.985   1_545  S
C266        C323   1.476       .  S
C267        O268   1.273       .  A
C269        C270   1.401       .  A
C269        C274   1.404       .  A
C269        F276   1.357       .  S
C270        C271   1.410       .  A
C271        C272   1.395       .  A
C271        F278   1.358       .  S
C272        C273   1.397       .  A
C272        F277   1.358       .  S
C273        C274   1.410       .  A
C274        F275   1.358       .  S
C279        C280   1.417       .  A
C279        C284   1.394       .  A
C279        F286   1.358       .  S
C280        C281   1.399       .  A
C281        C282   1.390       .  A
C281        F288   1.358       .  S
C282        C283   1.408       .  A
C282        F287   1.356       .  S
C283        C284   1.394       .  A
C284        F285   1.358       .  S
C289        C290   1.405       .  A
C289        C294   1.389       .  A
C289        F296   1.359       .  S
C290        C291   1.404       .  A
C291        C292   1.392       .  A
C291        F298   1.358       .  S
C292        C293   1.399       .  A
C292        F297   1.358       .  S
C293        C294   1.398       .  A
C294        F295   1.359       .  S
C299        C300   1.412       .  A
C299        C304   1.377       .  A
C299        F306   1.360       .  S
C300        C301   1.412       .  A
C301        C302   1.416       .  A
C301        F308   1.356       .  S
C302        C303   1.413       .  A
C302        F307   1.357       .  S
C303        C304   1.393       .  A
C304        F305   1.358       .  S
C309        C310   1.412       .  A
C309        C314   1.405       .  A
C309        F316   1.357       .  S
C310        C311   1.397       .  A
C311        C312   1.396       .  A
C311        F318   1.358       .  S
C312        C313   1.411       .  A
C312        F317   1.357       .  S
C313        C314   1.400       .  A
C314        F315   1.357       .  S
C319        C320   1.420       .  A
C319        C324   1.398       .  A
C319        F326   1.357       .  S
C320        C321   1.404       .  A
C321        C322   1.399       .  A
C321        F328   1.358       .  S
C322        C323   1.413       .  A
C322        F327   1.358       .  S
C323        C324   1.397       .  A
C324        F325   1.358       .  S
C329        C330   1.408       .  A
C329        C334   1.402       .  A
C329        F336   1.357       .  S
C330        C331   1.412       .  A
C331        C332   1.395       .  A
C331        F338   1.358       .  S
C332        C333   1.405       .  A
C332        F337   1.357       .  S
C333        C334   1.409       .  A
C334        F335   1.357       .  S
C339        C340   1.408       .  A
C339        C344   1.398       .  A
C339        F346   1.358       .  S
C340        C341   1.407       .  A
C341        C342   1.400       .  A
C341        F348   1.358       .  S
C342        C343   1.402       .  A
C342        F875   1.357       .  S
C343        C344   1.402       .  A
C343        N721   1.432   1_554  S
C344        F345   1.357   1_554  S
F347        C870   1.357       .  S
C349        C350   1.404       .  A
C349        C354   1.384       .  A
C349        F356   1.359       .  S
C350        C351   1.402       .  A
C351        C352   1.388       .  A
C351        F358   1.356       .  S
C352        C353   1.399       .  A
C352        F357   1.358       .  S
C353        C354   1.396       .  A
C354        F355   1.358       .  S
C359        C360   1.414       .  A
C359        C364   1.405       .  A
C359        F366   1.358       .  S
C360        C361   1.404       .  A
C361        C362   1.399       .  A
C361        F368   1.356       .  S
C362        C363   1.405       .  A
C362        F367   1.355       .  S
C363        C364   1.401       .  A
C364        F365   1.357       .  S
C369        C370   1.412       .  A
C369        C374   1.402       .  A
C369        F376   1.357       .  S
C370       C1427   1.404   1_545  A
C371        C372   1.397       .  A
C371       C1426   1.404       .  A
C371        F378   1.358       .  S
C372        C373   1.415       .  A
C372        F377   1.358       .  S
C373       C1430   1.404       .  A
C374       C1429   1.404   1_545  A
C374        F375   1.357       .  S
C379        C384   1.399       .  A
C379       C1436   1.404       .  A
C379        F386   1.357       .  S
C380        C381   1.402       .  A
C380       C1435   1.404   1_545  A
C381        C910   1.398   1_554  A
C381        F388   1.357       .  S
C382        C383   1.408   1_545  A
C382        C909   1.398       .  A
C382        F387   1.359       .  S
C383       C1968   1.406       .  A
C383       C1279   1.470       .  S
C384       C1967   1.406   1_554  A
C384        F385   1.358       .  S
C389        C390   1.411       .  A
C389        C394   1.396   1_455  A
C389        F396   1.358       .  S
C390        C391   1.401       .  A
C391        C392   1.403   1_455  A
C391        F398   1.357       .  S
C392        C393   1.418       .  A
C392        F397   1.358       .  S
C393        C394   1.406       .  A
C394        F395   1.358       .  S
C399        C400   1.414       .  A
C399        C404   1.401       .  A
C399        F406   1.358       .  S
C400        C401   1.405       .  A
C401        C402   1.398       .  A
C401        F408   1.358       .  S
C402        C403   1.411       .  A
C402        F407   1.358       .  S
C403        C404   1.403       .  A
C404        F405   1.358       .  S
C409        C410   1.398       .  A
C409        C414   1.397       .  A
C409        F416   1.358       .  S
C410        C411   1.411       .  A
C411        C412   1.402       .  A
C411        F418   1.358       .  S
C412        C413   1.399       .  A
C412        F417   1.358       .  S
C413        C414   1.410       .  A
C414        F415   1.358       .  S
C419        C420   1.402       .  A
C419        C424   1.388       .  A
C419        F426   1.356       .  S
C420        C421   1.409       .  A
C421        C422   1.407       .  A
C421        F428   1.357       .  S
C422        C423   1.405       .  A
C422        F427   1.357       .  S
C423        C424   1.402       .  A
C424        F425   1.354       .  S
C429        C430   1.405       .  A
C429        C434   1.391       .  A
C429        F436   1.354       .  S
C430        C431   1.403       .  A
C431        C432   1.385       .  A
C431        F438   1.358       .  S
C432        C433   1.398       .  A
C432        F437   1.357       .  S
C433        C434   1.398       .  A
C434        F435   1.358       .  S
C439        C440   1.404       .  A
C439        C444   1.400       .  A
C439        F446   1.352       .  S
C440        C441   1.401       .  A
C441        C442   1.405       .  A
C441        F448   1.357       .  S
C442        C443   1.415       .  A
C442        F447   1.357       .  S
C443        C444   1.406       .  A
C444        F445   1.356       .  S
C449        C450   1.399       .  A
C449        C454   1.400       .  A
C449        F456   1.357       .  S
C450        C451   1.411       .  A
C451        C452   1.402       .  A
C451        F458   1.356       .  S
C452        C453   1.399       .  A
C452        F457   1.358       .  S
C453        C454   1.409       .  A
C454        F455   1.358       .  S
C459        C460   1.418       .  A
C459        C464   1.399       .  A
C459        F466   1.358       .  S
C460        C461   1.404       .  A
C461        C462   1.400       .  A
C461        F468   1.358       .  S
C462        C463   1.412       .  A
C462        F467   1.358       .  S
C463        C464   1.399       .  A
C464        F465   1.358       .  S
C469        C470   1.413       .  A
C469        C474   1.399       .  A
C469        F476   1.358       .  S
C470        C471   1.406       .  A
C471        C472   1.401       .  A
C471        F478   1.358       .  S
C472        C473   1.411       .  A
C472        F477   1.356       .  S
C473        C474   1.406       .  A
C474        F475   1.358       .  S
C479        C480   1.405       .  A
C479       C1012   1.398       .  A
C479        F486   1.358       .  S
C480       C1009   1.407       .  A
C481        C482   1.400       .  A
C481       C1008   1.407   1_554  A
C481        F488   1.358       .  S
C482        C483   1.404       .  A
C482        F487   1.358       .  S
C483        C484   1.402       .  A
C484       C1007   1.398   1_554  A
C484        F485   1.357       .  S
C489        C490   1.404       .  A
C489        C494   1.390       .  A
C489        F496   1.354       .  S
C490        C491   1.403       .  A
C491        C492   1.387       .  A
C491        F498   1.359       .  S
C492        C493   1.400       .  A
C492        F497   1.358       .  S
C493        C494   1.398       .  A
C494        F495   1.358       .  S
C499        C500   1.415       .  A
C499        C504   1.403       .  A
C499        F506   1.358       .  S
C500        C501   1.406       .  A
C501        C502   1.401       .  A
C501        F508   1.356       .  S
C502        C503   1.403       .  A
C502        F507   1.354       .  S
C503        C504   1.400       .  A
C504        F505   1.357       .  S
C509        C510   1.414       .  A
C509        C514   1.400       .  A
C509        F516   1.358       .  S
C510       C1567   1.407       .  A
C511        C512   1.404       .  A
C511       C1566   1.407   1_545  A
C511        F518   1.358       .  S
C512        C513   1.413       .  A
C512        F517   1.356       .  S
C513       C1570   1.407   1_545  A
C514       C1569   1.407       .  A
C514        F515   1.358       .  S
C519        C524   1.401       .  A
C519       C1576   1.404       .  A
C519        F526   1.357   1_554  S
C520        C521   1.404       .  A
C520       C1575   1.404   1_545  A
C520        N542   1.437   1_554  S
C521        C522   1.401       .  A
C521        F528   1.357       .  S
C522        C523   1.406   1_545  A
C522        F527   1.358       .  S
C523       C1580   1.407       .  A
C523       C1145   1.468       .  S
C524       C1579   1.407       .  A
C524        F525   1.358       .  S
C529        C531   1.566       .  S
C529        C533   1.558       .  S
C529        C532   1.534       .  S
C529       C1028   1.541       .  S
C530        C534   1.550       .  S
C530        C536   1.552       .  S
C530        C535   1.534       .  S
C530       C1041   1.544       .  S
C531        C539   1.399       .  A
C531        C534   1.401       .  A
C532        C543   1.375       .  A
C532        C535   1.394       .  A
C533        C547   1.400       .  A
C533        C536   1.392       .  A
C534        C537   1.384       .  A
C535        C541   1.380       .  A
C536        C544   1.383       .  A
C537        N538   1.351       .  A
C537        H550   1.080       .  S
N538        C539   1.363       .  A
N538        C661   1.440       .  S
C539        H540   1.081       .  S
C541        N542   1.359       .  A
C541        H551   1.082       .  S
N542        C543   1.359       .  A
C543        H549   1.083       .  S
C544        N545   1.360       .  A
C544       H1602   1.081       .  S
N545        C547   1.355       .  A
N545       C1676   1.448       .  S
H546       C1600   1.081       .  S
C547        H548   1.080       .  S
O552        C567   1.259       .  A
O552       Al560   1.915       .  S
C553        O563   1.258       .  A
C553        O554   1.253       .  A
C553        C998   1.487       .  S
O554       Al556   1.897       .  S
O555        C557   1.263       .  A
O555       Al556   1.878       .  S
Al556       O564   1.876       .  S
Al556       O566   1.900       .  S
Al556       O565   1.769       .  S
C557        O570   1.259       .  A
C557       C1018   1.454       .  S
O558        C568   1.252       .  A
O558       Al560   1.859       .  S
O559        C572   1.265       .  A
O559       Al569   1.923       .  S
Al560       O573   1.857       .  S
Al560       O570   1.898       .  S
Al560       O565   1.793       .  S
O561        C568   1.268       .  A
O561       Al569   1.938       .  S
O562        C571   1.276       .  A
O562       Al569   1.968       .  S
O563       Al569   1.914       .  S
O564        C571   1.265       .  A
O565       Al569   1.790       .  S
O566        C567   1.258       .  A
C567       C1031   1.468       .  S
C568        C988   1.488       .  S
C571        C978   1.473       .  S
C572        O573   1.254       .  A
C572       C1008   1.464       .  S
C574        C576   1.567       .  S
C574        C578   1.558       .  S
C574        C577   1.534       .  S
C574        C971   1.543       .  S
C575        C579   1.548       .  S
C575        C581   1.549       .  S
C575        C580   1.530       .  S
C575       C1001   1.540       .  S
C576        C584   1.399       .  A
C576        C579   1.400       .  A
C577        C588   1.373       .  A
C577        C580   1.394       .  A
C578        C592   1.400       .  A
C578        C581   1.393       .  A
C579        C582   1.385       .  A
C580        C586   1.378       .  A
C581        C589   1.380       .  A
C582        N583   1.350       .  A
C582        H595   1.081       .  S
N583        C584   1.362       .  A
N583        C639   1.440       .  S
C584        H585   1.081       .  S
C586        N587   1.357       .  A
C586        H596   1.082       .  S
N587        C588   1.359       .  A
N587       C1011   1.433       .  S
C588        H594   1.083       .  S
C589        N590   1.358       .  A
C589        H591   1.081       .  S
N590        C592   1.356       .  A
N590        C642   1.445       .  S
C592        H593   1.080       .  S
O597        C612   1.261       .  A
O597       Al605   1.926       .  S
C598        O608   1.257       .  A
C598        O599   1.250       .  A
C598       C1038   1.493       .  S
O599       Al601   1.895       .  S
O600        C602   1.263       .  A
O600       Al601   1.875       .  S
Al601       O609   1.870       .  S
Al601       O611   1.892       .  S
Al601       O610   1.771       .  S
C602       O1671   1.261       .  A
C602        C958   1.456       .  S
O603        C613   1.252       .  A
O603      Al1661   1.867   1_545  S
O604        C617   1.265       .  A
O604       Al614   1.926       .  S
Al605      O1659   1.867       .  S
Al605      O1674   1.857       .  S
Al605      O1671   1.901       .  S
Al605       O610   1.799       .  S
O606        C613   1.265       .  A
O606      Al1670   1.918   1_545  S
O607        C616   1.276       .  A
O607       Al614   1.960       .  S
O608       Al614   1.920       .  S
O609        C616   1.265       .  A
O610       Al614   1.793       .  S
O611        C612   1.256       .  A
C612        C968   1.472       .  S
C613        C951   1.466       .  S
Al614      O1662   1.918       .  S
O615       C1658   1.261       .  A
O615      Al1661   1.901       .  S
C616        C938   1.467       .  S
C617       O1674   1.254       .  A
C617       C2107   1.468       .  S
O618       C1673   1.254       .  A
O618      Al1661   1.857       .  S
O619        C634   1.268       .  A
O619       Al627   1.883       .  S
C620       N1601   1.448       .  S
C620        O630   1.248       .  A
C620        O621   1.272       .  A
O621       Al623   1.974       .  S
O622        C624   1.251       .  A
O622      Al1679   1.863   1_545  S
Al623      O1678   1.863       .  S
Al623       O631   1.865       .  S
Al623       O633   1.964       .  S
Al623       O632   1.766       .  S
C624        O637   1.265       .  A
C624        C981   1.472       .  S
O625       C1691   1.258       .  A
O625      Al1683   1.864   1_545  S
O626        C639   1.249       .  A
O626       Al636   1.875       .  S
Al627      O1681   1.864       .  S
Al627       O640   1.985       .  S
Al627      O1693   1.968       .  S
Al627       O632   1.794       .  S
O628        C635   1.276       .  A
O628       Al636   1.920       .  S
O629        C638   1.265       .  A
O629       Al636   1.928       .  S
O630       Al636   1.852       .  S
O631        C638   1.252       .  A
O632       Al636   1.770       .  S
O633        C634   1.281       .  A
C634        C928   1.486       .  S
C635       O1681   1.258       .  A
C635        C961   1.442       .  S
O637      Al1683   1.968   1_545  S
C638        C991   1.479       .  S
C639        O640   1.269       .  A
O641        C656   1.266       .  A
O641       Al649   1.881       .  S
C642        O652   1.247       .  A
C642        O643   1.271       .  A
O643       Al645   1.971       .  S
O644        C646   1.250       .  A
O644       Al645   1.858       .  S
Al645       O653   1.869       .  S
Al645       O655   1.965       .  S
Al645       O654   1.774       .  S
C646        O659   1.265       .  A
C646        C941   1.471       .  S
O647        C657   1.257       .  A
O647       Al649   1.867       .  S
O648        C661   1.247       .  A
O648       Al658   1.867       .  S
Al649       O662   1.988       .  S
Al649       O659   1.965       .  S
Al649       O654   1.794       .  S
O650        C657   1.274       .  A
O650       Al658   1.913       .  S
O651        C660   1.264       .  A
O651       Al658   1.919       .  S
O652       Al658   1.844       .  S
O653        C660   1.252       .  A
O654       Al658   1.770       .  S
O655        C656   1.281       .  A
C656        C921   1.491       .  S
C657       C1021   1.443       .  S
C660        C948   1.470       .  S
C661        O662   1.269       .  A
C663        C665   1.566       .  S
C663        C667   1.558       .  S
C663        C666   1.537       .  S
C663        C888   1.542       .  S
C664        C668   1.545       .  S
C664        C670   1.551       .  S
C664        C669   1.529       .  S
C664        C898   1.538       .  S
C665        C673   1.399       .  A
C665        C668   1.398       .  A
C666        C677   1.374       .  A
C666        C669   1.395       .  A
C667        C681   1.400       .  A
C667        C670   1.393       .  A
C668        C671   1.382       .  A
C669        C675   1.378       .  A
C670        C678   1.384       .  A
C671        N672   1.350       .  A
C671        H684   1.081       .  S
N672        C673   1.362       .  A
N672        C773   1.439       .  S
C673        H674   1.081       .  S
C675        N676   1.357       .  A
C675        H685   1.082       .  S
N676        C677   1.360       .  A
N676        C908   1.434       .  S
C677        H683   1.083       .  S
C678        N679   1.359       .  A
C678       H1736   1.081   1_545  S
N679        C681   1.355       .  A
N679       C1832   1.447   1_545  S
H680       C1734   1.081       .  S
C681        H682   1.080       .  S
O686        C701   1.260       .  A
O686       Al694   1.924       .  S
C687        O697   1.254       .  A
C687        O688   1.250       .  A
C687        C858   1.485       .  S
O688       Al690   1.894       .  S
O689        C691   1.265       .  A
O689       Al690   1.865       .  S
Al690       O698   1.867       .  S
Al690       O700   1.898       .  S
Al690       O699   1.767       .  S
C691        O704   1.263       .  A
C691        C878   1.451       .  S
O692        C702   1.251       .  A
O692       Al694   1.855       .  S
O693        C706   1.264       .  A
O693       Al703   1.917       .  S
Al694       O707   1.860       .  S
Al694       O704   1.900       .  S
Al694       O699   1.791       .  S
O695        C702   1.267       .  A
O695       Al703   1.931       .  S
O696        C705   1.280       .  A
O696       Al703   1.974       .  S
O697       Al703   1.914       .  S
O698        C705   1.267       .  A
O699       Al703   1.786       .  S
O700        C701   1.255       .  A
C701        C891   1.472       .  S
C702        C848   1.487       .  S
C705        C838   1.469       .  S
C706        O707   1.255       .  A
C706        C868   1.470       .  S
C708        C710   1.542       .  S
C708        C712   1.546       .  S
C708        C711   1.542       .  S
C708        C828   1.529       .  S
C709        C713   1.550       .  S
C709        C715   1.555       .  S
C709        C714   1.549       .  S
C709        C861   1.537       .  S
C710        C718   1.392       .  A
C710        C713   1.386       .  A
C711        C722   1.380       .  A
C711        C714   1.423       .  A
C712        C726   1.392       .  A
C712        C715   1.378       .  A
C713        C716   1.391       .  A
C714        C720   1.382       .  A
C715        C723   1.392       .  A
C716        N717   1.356       .  A
C716        H729   1.080       .  S
N717        C718   1.361       .  A
N717        C795   1.442       .  S
C718        H719   1.083       .  S
C720        N721   1.351       .  A
C720        H730   1.083       .  S
N721        C722   1.354       .  A
C722        H728   1.083       .  S
C723        N724   1.365       .  A
C723        H725   1.082       .  S
N724        C726   1.347       .  A
N724        C754   1.445       .  S
C726        H727   1.082       .  S
O731        C746   1.257       .  A
O731       Al739   1.929       .  S
C732        O742   1.254       .  A
C732        O733   1.241       .  A
C732        C901   1.486       .  S
O733       Al735   1.870       .  S
O734        C736   1.268       .  A
O734       Al735   1.867       .  S
Al735       O743   1.871       .  S
Al735       O745   1.880       .  S
Al735       O744   1.759       .  S
C736       O1805   1.273       .  A
C736        C818   1.455       .  S
O737        C747   1.253       .  A
O737      Al1795   1.852   1_545  S
O738        C751   1.260       .  A
O738       Al748   1.905       .  S
Al739      O1793   1.852       .  S
Al739      O1808   1.866       .  S
Al739      O1805   1.933       .  S
Al739       O744   1.793       .  S
O740        C747   1.266       .  A
O740      Al1804   1.904   1_545  S
O741        C750   1.282       .  A
O741       Al748   1.964       .  S
O742       Al748   1.929       .  S
O743        C750   1.272       .  A
O744       Al748   1.778       .  S
O745        C746   1.251       .  A
C746        C831   1.463       .  S
C747        C808   1.468       .  S
Al748      O1796   1.904       .  S
O749       C1792   1.273   1_565  A
O749      Al1795   1.933       .  S
C750        C801   1.464       .  S
C751       O1808   1.255       .  A
C751       C1967   1.470       .  S
O752       C1807   1.255       .  A
O752      Al1795   1.866       .  S
O753        C768   1.267       .  A
O753       Al761   1.869       .  S
C754        O764   1.245       .  A
C754        O755   1.273       .  A
O755       Al757   1.972       .  S
O756        C758   1.250       .  A
O756       Al757   1.861       .  S
Al757       O765   1.832       .  S
Al757       O767   1.995       .  S
Al757       O766   1.760       .  S
C758        O771   1.266       .  A
C758        C798   1.473       .  S
O759        C769   1.256       .  A
O759       Al761   1.839       .  S
O760        C773   1.247       .  A
O760       Al770   1.874       .  S
Al761       O774   1.984       .  S
Al761       O771   1.975       .  S
Al761       O766   1.793       .  S
O762        C769   1.281       .  A
O762       Al770   1.937       .  S
O763        C772   1.266       .  A
O763       Al770   1.929       .  S
O764       Al770   1.848       .  S
O765        C772   1.248       .  A
O766       Al770   1.767       .  S
O767        C768   1.286       .  A
C768        C918   1.483       .  S
C769        C881   1.434       .  S
C772        C811   1.458       .  S
C773        O774   1.266       .  A
O775        C790   1.266       .  A
O775       Al783   1.884       .  S
C776       N1735   1.447       .  S
C776        O786   1.249       .  A
C776        O777   1.272       .  A
O777       Al779   1.973       .  S
O778        C780   1.253       .  A
O778      Al1835   1.864   1_545  S
Al779      O1834   1.864       .  S
Al779       O787   1.857       .  S
Al779       O789   1.964       .  S
Al779       O788   1.766       .  S
C780        O793   1.271       .  A
C780        C841   1.477       .  S
O781       C1847   1.257   1_545  A
O781      Al1839   1.859   1_545  S
O782        C795   1.248       .  A
O782       Al792   1.873       .  S
Al783      O1837   1.859       .  S
Al783       O796   1.999       .  S
Al783      O1849   1.985       .  S
Al783       O788   1.788       .  S
O784        C791   1.275       .  A
O784       Al792   1.931       .  S
O785        C794   1.268       .  A
O785       Al792   1.937       .  S
O786       Al792   1.857       .  S
O787        C794   1.252       .  A
O788       Al792   1.768       .  S
O789        C790   1.278       .  A
C790        C931   1.482       .  S
C791       O1837   1.257       .  A
C791        C821   1.443       .  S
O793      Al1839   1.985   1_545  S
C794        C851   1.476       .  S
C795        O796   1.273       .  A
C797        C798   1.401       .  A
C797        C802   1.404       .  A
C797        F804   1.357       .  S
C798        C799   1.410       .  A
C799        C800   1.395       .  A
C799        F806   1.358       .  S
C800        C801   1.397       .  A
C800        F805   1.358       .  S
C801        C802   1.410       .  A
C802        F803   1.358       .  S
C807        C808   1.417       .  A
C807        C812   1.394       .  A
C807        F814   1.358       .  S
C808        C809   1.399       .  A
C809        C810   1.390       .  A
C809        F816   1.358       .  S
C810        C811   1.408       .  A
C810        F815   1.356       .  S
C811        C812   1.394       .  A
C812        F813   1.358       .  S
C817        C818   1.405       .  A
C817        C822   1.389       .  A
C817        F824   1.359       .  S
C818        C819   1.404       .  A
C819        C820   1.392       .  A
C819        F826   1.358       .  S
C820        C821   1.399       .  A
C820        F825   1.358       .  S
C821        C822   1.398       .  A
C822        F823   1.359       .  S
C827        C828   1.412       .  A
C827        C832   1.377       .  A
C827        F834   1.360       .  S
C828        C829   1.412       .  A
C829        C830   1.416       .  A
C829        F836   1.356       .  S
C830        C831   1.413       .  A
C830        F835   1.357       .  S
C831        C832   1.393       .  A
C832        F833   1.358       .  S
C837        C838   1.412       .  A
C837        C842   1.405       .  A
C837        F844   1.357       .  S
C838        C839   1.397       .  A
C839        C840   1.396       .  A
C839        F846   1.358       .  S
C840        C841   1.411       .  A
C840        F845   1.357       .  S
C841        C842   1.400       .  A
C842        F843   1.357       .  S
C847        C848   1.420       .  A
C847        C852   1.398       .  A
C847        F854   1.357       .  S
C848        C849   1.404       .  A
C849        C850   1.399       .  A
C849        F856   1.358       .  S
C850        C851   1.413       .  A
C850        F855   1.358       .  S
C851        C852   1.397       .  A
C852        F853   1.358       .  S
C857        C858   1.408       .  A
C857        C862   1.402       .  A
C857        F864   1.357       .  S
C858        C859   1.412       .  A
C859        C860   1.395       .  A
C859        F866   1.358       .  S
C860        C861   1.405       .  A
C860        F865   1.357       .  S
C861        C862   1.409       .  A
C862        F863   1.357       .  S
C867        C868   1.408       .  A
C867        C872   1.398       .  A
C867        F874   1.358       .  S
C868        C869   1.407       .  A
C869        C870   1.400       .  A
C869        F876   1.358       .  S
C870        C871   1.402       .  A
C871        C872   1.402       .  A
C872        F873   1.357       .  S
C877        C878   1.404       .  A
C877        C882   1.384       .  A
C877        F884   1.359       .  S
C878        C879   1.402       .  A
C879        C880   1.388       .  A
C879        F886   1.356       .  S
C880        C881   1.399       .  A
C880        F885   1.358       .  S
C881        C882   1.396       .  A
C882        F883   1.358       .  S
C887        C888   1.414       .  A
C887        C892   1.405       .  A
C887        F894   1.358       .  S
C888        C889   1.404       .  A
C889        C890   1.399       .  A
C889        F896   1.356       .  S
C890        C891   1.405       .  A
C890        F895   1.355       .  S
C891        C892   1.401       .  A
C892        F893   1.357       .  S
C897        C898   1.412       .  A
C897        C902   1.402       .  A
C897        F904   1.357       .  S
C898       C1955   1.404   1_545  A
C899       C1954   1.404       .  A
C899        C900   1.397       .  A
C899        F906   1.358       .  S
C900        C901   1.415       .  A
C900        F905   1.358       .  S
C901       C1958   1.404       .  A
C902       C1957   1.404   1_545  A
C902        F903   1.357       .  S
C907       C1964   1.404       .  A
C907        C912   1.399       .  A
C907        F914   1.357       .  S
C908       C1963   1.404   1_545  A
C908        C909   1.402       .  A
C909        F916   1.357       .  S
C910        C911   1.408   1_545  A
C910        F915   1.359       .  S
C911       C1440   1.406   1_556  A
C911       C1807   1.470       .  S
C912       C1439   1.406       .  A
C912        F913   1.358       .  S
C917        C918   1.411       .  A
C917        C922   1.396   1_455  A
C917        F924   1.358       .  S
C918        C919   1.401       .  A
C919        C920   1.403   1_455  A
C919        F926   1.357       .  S
C920        C921   1.418       .  A
C920        F925   1.358       .  S
C921        C922   1.406       .  A
C922        F923   1.358       .  S
C927        C928   1.414       .  A
C927        C932   1.401       .  A
C927        F934   1.358       .  S
C928        C929   1.405       .  A
C929        C930   1.398       .  A
C929        F936   1.358       .  S
C930        C931   1.411       .  A
C930        F935   1.358       .  S
C931        C932   1.403       .  A
C932        F933   1.358       .  S
C937        C938   1.398       .  A
C937        C942   1.397       .  A
C937        F944   1.358       .  S
C938        C939   1.411       .  A
C939        C940   1.402       .  A
C939        F946   1.358       .  S
C940        C941   1.399       .  A
C940        F945   1.358       .  S
C941        C942   1.410       .  A
C942        F943   1.358       .  S
C947        C948   1.402       .  A
C947        C952   1.388       .  A
C947        F954   1.356       .  S
C948        C949   1.409       .  A
C949        C950   1.407       .  A
C949        F956   1.357       .  S
C950        C951   1.405       .  A
C950        F955   1.357       .  S
C951        C952   1.402       .  A
C952        F953   1.354       .  S
C957        C958   1.405       .  A
C957        C962   1.391       .  A
C957        F964   1.354       .  S
C958        C959   1.403       .  A
C959        C960   1.385       .  A
C959        F966   1.358       .  S
C960        C961   1.398       .  A
C960        F965   1.357       .  S
C961        C962   1.398       .  A
C962        F963   1.358       .  S
C967        C968   1.404       .  A
C967        C972   1.400       .  A
C967        F974   1.352       .  S
C968        C969   1.401       .  A
C969        C970   1.405       .  A
C969        F976   1.357       .  S
C970        C971   1.415       .  A
C970        F975   1.357       .  S
C971        C972   1.406       .  A
C972        F973   1.356       .  S
C977        C978   1.399       .  A
C977        C982   1.400       .  A
C977        F984   1.357       .  S
C978        C979   1.411       .  A
C979        C980   1.402       .  A
C979        F986   1.356       .  S
C980        C981   1.399       .  A
C980        F985   1.358       .  S
C981        C982   1.409       .  A
C982        F983   1.358       .  S
C987        C988   1.418       .  A
C987        C992   1.399       .  A
C987        F994   1.358       .  S
C988        C989   1.404       .  A
C989        C990   1.400       .  A
C989        F996   1.358       .  S
C990        C991   1.412       .  A
C990        F995   1.358       .  S
C991        C992   1.399       .  A
C992        F993   1.358       .  S
C997        C998   1.413       .  A
C997       C1002   1.399       .  A
C997       F1004   1.358       .  S
C998        C999   1.406       .  A
C999       C1000   1.401       .  A
C999       F1006   1.358       .  S
C1000      C1001   1.411       .  A
C1000      F1005   1.356       .  S
C1001      C1002   1.406       .  A
C1002      F1003   1.358       .  S
C1007      C1008   1.405       .  A
C1007      F1014   1.358       .  S
C1009      C1010   1.400       .  A
C1009      F1016   1.358       .  S
C1010      C1011   1.404       .  A
C1010      F1015   1.358       .  S
C1011      C1012   1.402       .  A
C1012      F1013   1.357       .  S
C1017      C1018   1.404       .  A
C1017      C1022   1.390       .  A
C1017      F1024   1.354       .  S
C1018      C1019   1.403       .  A
C1019      C1020   1.387       .  A
C1019      F1026   1.359       .  S
C1020      C1021   1.400       .  A
C1020      F1025   1.358       .  S
C1021      C1022   1.398       .  A
C1022      F1023   1.358       .  S
C1027      C1028   1.415       .  A
C1027      C1032   1.403       .  A
C1027      F1034   1.358       .  S
C1028      C1029   1.406       .  A
C1029      C1030   1.401       .  A
C1029      F1036   1.356       .  S
C1030      C1031   1.403       .  A
C1030      F1035   1.354       .  S
C1031      C1032   1.400       .  A
C1032      F1033   1.357       .  S
C1037      C1038   1.414       .  A
C1037      C1042   1.400       .  A
C1037      F1044   1.358       .  S
C1038      C2095   1.407       .  A
C1039      C2094   1.407   1_545  A
C1039      C1040   1.404       .  A
C1039      F1046   1.358       .  S
C1040      C1041   1.413       .  A
C1040      F1045   1.356       .  S
C1041      C2098   1.407   1_545  A
C1042      C2097   1.407       .  A
C1042      F1043   1.358       .  S
C1047      C2104   1.404       .  A
C1047      C1052   1.401       .  A
C1047      F1054   1.357       .  S
C1048      C2103   1.404   1_545  A
C1048      C1049   1.404       .  A
C1049      C1050   1.401       .  A
C1049      F1056   1.357       .  S
C1050      C1051   1.406   1_545  A
C1050      F1055   1.358       .  S
C1051      C2108   1.407       .  A
C1051      C1673   1.468       .  S
C1052      C2107   1.407       .  A
C1052      F1053   1.358       .  S
C1057      C1059   1.566       .  S
C1057      C1061   1.558       .  S
C1057      C1060   1.534       .  S
C1057      C1556   1.541       .  S
C1058      C1062   1.550       .  S
C1058      C1064   1.552       .  S
C1058      C1063   1.534       .  S
C1058      C1569   1.544       .  S
C1059      C1067   1.399       .  A
C1059      C1062   1.401       .  A
C1060      C1071   1.375       .  A
C1060      C1063   1.394       .  A
C1061      C1075   1.400       .  A
C1061      C1064   1.392       .  A
C1062      C1065   1.384       .  A
C1063      C1069   1.380       .  A
C1064      C1072   1.383       .  A
C1065      N1066   1.351       .  A
C1065      H1078   1.080       .  S
N1066      C1067   1.363       .  A
N1066      C1189   1.440       .  S
C1067      H1068   1.081       .  S
C1069      N1070   1.359       .  A
C1069      H1079   1.082       .  S
N1070      C1071   1.359       .  A
N1070      C2104   1.437       .  S
C1071      H1077   1.083       .  S
C1072      N1073   1.360       .  A
N1073      C1075   1.355       .  A
C1075      H1076   1.080       .  S
O1080      C1095   1.259       .  A
O1080     Al1088   1.915       .  S
C1081      O1091   1.258       .  A
C1081      O1082   1.253       .  A
C1081      C1526   1.487       .  S
O1082     Al1084   1.897       .  S
O1083      C1085   1.263       .  A
O1083     Al1084   1.878       .  S
Al1084     O1092   1.876       .  S
Al1084     O1094   1.900       .  S
Al1084     O1093   1.769       .  S
C1085      O1098   1.259       .  A
C1085      C1546   1.454       .  S
O1086      C1096   1.252       .  A
O1086     Al1088   1.859       .  S
O1087      C1100   1.265       .  A
O1087     Al1097   1.923       .  S
Al1088     O1101   1.857       .  S
Al1088     O1098   1.898       .  S
Al1088     O1093   1.793       .  S
O1089      C1096   1.268       .  A
O1089     Al1097   1.938       .  S
O1090      C1099   1.276       .  A
O1090     Al1097   1.968       .  S
O1091     Al1097   1.914       .  S
O1092      C1099   1.265       .  A
O1093     Al1097   1.790       .  S
O1094      C1095   1.258       .  A
C1095      C1559   1.468       .  S
C1096      C1516   1.488       .  S
C1099      C1506   1.473       .  S
C1100      O1101   1.254       .  A
C1100      C1536   1.464       .  S
C1102      C1104   1.567       .  S
C1102      C1106   1.558       .  S
C1102      C1105   1.534       .  S
C1102      C1499   1.543       .  S
C1103      C1107   1.548       .  S
C1103      C1109   1.549       .  S
C1103      C1108   1.530       .  S
C1103      C1529   1.540       .  S
C1104      C1112   1.399       .  A
C1104      C1107   1.400       .  A
C1105      C1116   1.373       .  A
C1105      C1108   1.394       .  A
C1106      C1120   1.400       .  A
C1106      C1109   1.393       .  A
C1107      C1110   1.385       .  A
C1108      C1114   1.378       .  A
C1109      C1117   1.380       .  A
C1110      N1111   1.350       .  A
C1110      H1123   1.081       .  S
N1111      C1112   1.362       .  A
N1111      C1167   1.440       .  S
C1112      H1113   1.081       .  S
C1114      N1115   1.357       .  A
C1114      H1124   1.082       .  S
N1115      C1116   1.359       .  A
N1115      C1539   1.433       .  S
C1116      H1122   1.083       .  S
C1117      N1118   1.358       .  A
C1117      H1119   1.081       .  S
N1118      C1120   1.356       .  A
N1118      C1170   1.445       .  S
C1120      H1121   1.080       .  S
O1125      C1140   1.261       .  A
O1125     Al1133   1.926       .  S
C1126      O1136   1.257   1_565  A
C1126      O1127   1.250       .  A
C1126      C1566   1.493       .  S
O1127     Al1129   1.895       .  S
O1128      C1130   1.263       .  A
O1128     Al1129   1.875       .  S
Al1129     O1137   1.870       .  S
Al1129     O1139   1.892       .  S
Al1129     O1138   1.771       .  S
C1130      C1486   1.456   1_565  S
O1131      C1141   1.252       .  A
O1132      C1145   1.265       .  A
O1132     Al1142   1.926       .  S
Al1133     O1138   1.799       .  S
O1134      C1141   1.265       .  A
O1135      C1144   1.276       .  A
O1135     Al1142   1.960       .  S
O1136     Al1142   1.920   1_545  S
O1137      C1144   1.265       .  A
O1138     Al1142   1.793       .  S
O1139      C1140   1.256       .  A
C1140      C1496   1.472       .  S
C1141      C1479   1.466       .  S
C1144      C1466   1.467       .  S
O1147      C1162   1.268       .  A
O1147     Al1155   1.883       .  S
C1148      O1158   1.248   1_545  A
C1148      O1149   1.272       .  A
O1149     Al1151   1.974   1_545  S
O1150      C1152   1.251       .  A
Al1151     O1159   1.865       .  S
Al1151     O1161   1.964       .  S
Al1151     O1160   1.766       .  S
C1152      O1165   1.265       .  A
C1152      C1509   1.472       .  S
O1154      C1167   1.249       .  A
O1154     Al1164   1.875       .  S
Al1155     O1168   1.985       .  S
Al1155     O1160   1.794       .  S
O1156      C1163   1.276   1_565  A
O1156     Al1164   1.920       .  S
O1157      C1166   1.265       .  A
O1157     Al1164   1.928       .  S
O1158     Al1164   1.852       .  S
O1159      C1166   1.252       .  A
O1160     Al1164   1.770       .  S
O1161      C1162   1.281       .  A
C1162      C1456   1.486       .  S
C1163      C1489   1.442       .  S
C1166      C1519   1.479       .  S
C1167      O1168   1.269       .  A
O1169      C1184   1.266       .  A
O1169     Al1177   1.881       .  S
C1170      O1180   1.247       .  A
C1170      O1171   1.271       .  A
O1171     Al1173   1.971       .  S
O1172      C1174   1.250       .  A
O1172     Al1173   1.858       .  S
Al1173     O1181   1.869       .  S
Al1173     O1183   1.965       .  S
Al1173     O1182   1.774       .  S
C1174      O1187   1.265       .  A
C1174      C1469   1.471       .  S
O1175      C1185   1.257       .  A
O1175     Al1177   1.867       .  S
O1176      C1189   1.247       .  A
O1176     Al1186   1.867       .  S
Al1177     O1190   1.988       .  S
Al1177     O1187   1.965       .  S
Al1177     O1182   1.794       .  S
O1178      C1185   1.274       .  A
O1178     Al1186   1.913       .  S
O1179      C1188   1.264       .  A
O1179     Al1186   1.919       .  S
O1180     Al1186   1.844       .  S
O1181      C1188   1.252       .  A
O1182     Al1186   1.770       .  S
O1183      C1184   1.281       .  A
C1184      C1449   1.491       .  S
C1185      C1549   1.443       .  S
C1188      C1476   1.470       .  S
C1189      O1190   1.269       .  A
C1191      C1193   1.566       .  S
C1191      C1195   1.558       .  S
C1191      C1194   1.537       .  S
C1191      C1416   1.542       .  S
C1192      C1196   1.545       .  S
C1192      C1198   1.551       .  S
C1192      C1197   1.529       .  S
C1192      C1426   1.538       .  S
C1193      C1201   1.399       .  A
C1193      C1196   1.398       .  A
C1194      C1205   1.374       .  A
C1194      C1197   1.395       .  A
C1195      C1209   1.400       .  A
C1195      C1198   1.393       .  A
C1196      C1199   1.382       .  A
C1197      C1203   1.378       .  A
C1198      C1206   1.384       .  A
C1199      N1200   1.350       .  A
C1199      H1212   1.081       .  S
N1200      C1201   1.362       .  A
N1200      C1301   1.439       .  S
C1201      H1202   1.081       .  S
C1203      N1204   1.357       .  A
C1203      H1213   1.082       .  S
N1204      C1205   1.360       .  A
N1204      C1436   1.434       .  S
C1205      H1211   1.083       .  S
C1206      N1207   1.359       .  A
N1207      C1209   1.355       .  A
C1209      H1210   1.080       .  S
O1214      C1229   1.260       .  A
O1214     Al1222   1.924       .  S
C1215      O1225   1.254       .  A
C1215      O1216   1.250       .  A
C1215      C1386   1.485       .  S
O1216     Al1218   1.894       .  S
O1217      C1219   1.265       .  A
O1217     Al1218   1.865       .  S
Al1218     O1226   1.867       .  S
Al1218     O1228   1.898       .  S
Al1218     O1227   1.767       .  S
C1219      O1232   1.263       .  A
C1219      C1406   1.451       .  S
O1220      C1230   1.251       .  A
O1220     Al1222   1.855       .  S
O1221      C1234   1.264       .  A
O1221     Al1231   1.917       .  S
Al1222     O1235   1.860       .  S
Al1222     O1232   1.900       .  S
Al1222     O1227   1.791       .  S
O1223      C1230   1.267       .  A
O1223     Al1231   1.931       .  S
O1224      C1233   1.280       .  A
O1224     Al1231   1.974       .  S
O1225     Al1231   1.914       .  S
O1226      C1233   1.267       .  A
O1227     Al1231   1.786       .  S
O1228      C1229   1.255       .  A
C1229      C1419   1.472       .  S
C1230      C1376   1.487       .  S
C1233      C1366   1.469       .  S
C1234      O1235   1.255       .  A
C1234      C1396   1.470       .  S
C1236      C1238   1.542       .  S
C1236      C1240   1.546       .  S
C1236      C1239   1.542       .  S
C1236      C1356   1.529       .  S
C1237      C1241   1.550       .  S
C1237      C1243   1.555       .  S
C1237      C1242   1.549       .  S
C1237      C1389   1.537       .  S
C1238      C1246   1.392       .  A
C1238      C1241   1.386       .  A
C1239      C1250   1.380       .  A
C1239      C1242   1.423       .  A
C1240      C1254   1.392       .  A
C1240      C1243   1.378       .  A
C1241      C1244   1.391       .  A
C1242      C1248   1.382       .  A
C1243      C1251   1.392       .  A
C1244      N1245   1.356       .  A
C1244      H1257   1.080       .  S
N1245      C1246   1.361       .  A
N1245      C1323   1.442       .  S
C1246      H1247   1.083       .  S
C1248      N1249   1.351       .  A
C1248      H1258   1.083       .  S
N1249      C1250   1.354       .  A
N1249      C1927   1.432       .  S
C1250      H1256   1.083       .  S
C1251      N1252   1.365       .  A
C1251      H1253   1.082       .  S
N1252      C1254   1.347       .  A
N1252      C1282   1.445       .  S
C1254      H1255   1.082       .  S
O1259      C1274   1.257       .  A
O1259     Al1267   1.929       .  S
C1260      O1270   1.254       .  A
C1260      O1261   1.241       .  A
C1260      C1429   1.486       .  S
O1261     Al1263   1.870       .  S
O1262      C1264   1.268   1_565  A
O1262     Al1263   1.867       .  S
Al1263     O1271   1.871       .  S
Al1263     O1273   1.880       .  S
Al1263     O1272   1.759       .  S
C1264      C1346   1.455       .  S
O1265      C1275   1.253       .  A
O1266      C1279   1.260       .  A
O1266     Al1276   1.905       .  S
Al1267     O1272   1.793       .  S
O1268      C1275   1.266       .  A
O1269      C1278   1.282       .  A
O1269     Al1276   1.964       .  S
O1270     Al1276   1.929       .  S
O1271      C1278   1.272       .  A
O1272     Al1276   1.778       .  S
O1273      C1274   1.251       .  A
C1274      C1359   1.463       .  S
C1275      C1336   1.468       .  S
C1278      C1329   1.464       .  S
O1281      C1296   1.267       .  A
O1281     Al1289   1.869       .  S
C1282      O1292   1.245       .  A
C1282      O1283   1.273       .  A
O1283     Al1285   1.972       .  S
O1284      C1286   1.250       .  A
O1284     Al1285   1.861       .  S
Al1285     O1293   1.832       .  S
Al1285     O1295   1.995       .  S
Al1285     O1294   1.760       .  S
C1286      O1299   1.266       .  A
C1286      C1326   1.473       .  S
O1287      C1297   1.256       .  A
O1287     Al1289   1.839       .  S
O1288      C1301   1.247       .  A
O1288     Al1298   1.874       .  S
Al1289     O1302   1.984       .  S
Al1289     O1299   1.975       .  S
Al1289     O1294   1.793       .  S
O1290      C1297   1.281       .  A
O1290     Al1298   1.937       .  S
O1291      C1300   1.266       .  A
O1291     Al1298   1.929       .  S
O1292     Al1298   1.848       .  S
O1293      C1300   1.248       .  A
O1294     Al1298   1.767       .  S
O1295      C1296   1.286       .  A
C1296      C1446   1.483       .  S
C1297      C1409   1.434       .  S
C1300      C1339   1.458       .  S
C1301      O1302   1.266       .  A
O1303      C1318   1.266       .  A
O1303     Al1311   1.884       .  S
C1304      O1314   1.249       .  A
C1304      O1305   1.272       .  A
O1305     Al1307   1.973       .  S
O1306      C1308   1.253       .  A
Al1307     O1315   1.857       .  S
Al1307     O1317   1.964       .  S
Al1307     O1316   1.766       .  S
C1308      O1321   1.271       .  A
C1308      C1369   1.477       .  S
O1310      C1323   1.248       .  A
O1310     Al1320   1.873       .  S
Al1311     O1324   1.999       .  S
Al1311     O1316   1.788       .  S
O1312      C1319   1.275       .  A
O1312     Al1320   1.931       .  S
O1313      C1322   1.268       .  A
O1313     Al1320   1.937       .  S
O1314     Al1320   1.857       .  S
O1315      C1322   1.252       .  A
O1316     Al1320   1.768       .  S
O1317      C1318   1.278       .  A
C1318      C1459   1.482       .  S
C1319      C1349   1.443   1_565  S
C1322      C1379   1.476       .  S
C1323      O1324   1.273       .  A
C1325      C1326   1.401       .  A
C1325      C1330   1.404       .  A
C1325      F1332   1.357       .  S
C1326      C1327   1.410       .  A
C1327      C1328   1.395       .  A
C1327      F1334   1.358       .  S
C1328      C1329   1.397       .  A
C1328      F1333   1.358       .  S
C1329      C1330   1.410       .  A
C1330      F1331   1.358       .  S
C1335      C1336   1.417       .  A
C1335      C1340   1.394       .  A
C1335      F1342   1.358       .  S
C1336      C1337   1.399       .  A
C1337      C1338   1.390       .  A
C1337      F1344   1.358       .  S
C1338      C1339   1.408       .  A
C1338      F1343   1.356       .  S
C1339      C1340   1.394       .  A
C1340      F1341   1.358       .  S
C1345      C1346   1.405       .  A
C1345      C1350   1.389       .  A
C1345      F1352   1.359       .  S
C1346      C1347   1.404       .  A
C1347      C1348   1.392       .  A
C1347      F1354   1.358   1_545  S
C1348      C1349   1.399       .  A
C1348      F1353   1.358   1_545  S
C1349      C1350   1.398       .  A
C1350      F1351   1.359       .  S
C1355      C1356   1.412       .  A
C1355      C1360   1.377       .  A
C1355      F1362   1.360       .  S
C1356      C1357   1.412       .  A
C1357      C1358   1.416       .  A
C1357      F1364   1.356       .  S
C1358      C1359   1.413       .  A
C1358      F1363   1.357       .  S
C1359      C1360   1.393       .  A
C1360      F1361   1.358       .  S
C1365      C1366   1.412       .  A
C1365      C1370   1.405       .  A
C1365      F1372   1.357       .  S
C1366      C1367   1.397       .  A
C1367      C1368   1.396       .  A
C1367      F1374   1.358       .  S
C1368      C1369   1.411       .  A
C1368      F1373   1.357       .  S
C1369      C1370   1.400       .  A
C1370      F1371   1.357       .  S
C1375      C1376   1.420       .  A
C1375      C1380   1.398       .  A
C1375      F1382   1.357       .  S
C1376      C1377   1.404       .  A
C1377      C1378   1.399       .  A
C1377      F1384   1.358       .  S
C1378      C1379   1.413       .  A
C1378      F1383   1.358       .  S
C1379      C1380   1.397       .  A
C1380      F1381   1.358       .  S
C1385      C1386   1.408       .  A
C1385      C1390   1.402       .  A
C1385      F1392   1.357       .  S
C1386      C1387   1.412       .  A
C1387      C1388   1.395       .  A
C1387      F1394   1.358       .  S
C1388      C1389   1.405       .  A
C1388      F1393   1.357       .  S
C1389      C1390   1.409       .  A
C1390      F1391   1.357       .  S
C1395      C1396   1.408       .  A
C1395      C1400   1.398       .  A
C1395      F1402   1.358       .  S
C1396      C1397   1.407       .  A
C1397      C1398   1.400       .  A
C1397      F1404   1.358       .  S
C1398      C1399   1.402       .  A
C1398      F1931   1.357       .  S
C1399      C1400   1.402       .  A
C1399      N1777   1.432   1_554  S
C1400      F1401   1.357   1_554  S
F1403      C1926   1.357       .  S
C1405      C1406   1.404       .  A
C1405      C1410   1.384       .  A
C1405      F1412   1.359       .  S
C1406      C1407   1.402       .  A
C1407      C1408   1.388       .  A
C1407      F1414   1.356       .  S
C1408      C1409   1.399       .  A
C1408      F1413   1.358       .  S
C1409      C1410   1.396       .  A
C1410      F1411   1.358       .  S
C1415      C1416   1.414       .  A
C1415      C1420   1.405       .  A
C1415      F1422   1.358       .  S
C1416      C1417   1.404       .  A
C1417      C1418   1.399       .  A
C1417      F1424   1.356       .  S
C1418      C1419   1.405       .  A
C1418      F1423   1.355       .  S
C1419      C1420   1.401       .  A
C1420      F1421   1.357       .  S
C1425      C1426   1.412       .  A
C1425      C1430   1.402       .  A
C1425      F1432   1.357       .  S
C1427      C1428   1.397       .  A
C1427      F1434   1.358       .  S
C1428      C1429   1.415       .  A
C1428      F1433   1.358       .  S
C1430      F1431   1.357       .  S
C1435      C1440   1.399       .  A
C1435      F1442   1.357       .  S
C1436      C1437   1.402       .  A
C1437      C1966   1.398   1_554  A
C1437      F1444   1.357       .  S
C1438      C1965   1.398       .  A
C1438      C1439   1.408       .  A
C1438      F1443   1.359       .  S
C1440      F1441   1.358       .  S
C1445      C1446   1.411       .  A
C1445      C1450   1.396   1_455  A
C1445      F1452   1.358       .  S
C1446      C1447   1.401       .  A
C1447      C1448   1.403   1_455  A
C1447      F1454   1.357       .  S
C1448      C1449   1.418       .  A
C1448      F1453   1.358       .  S
C1449      C1450   1.406       .  A
C1450      F1451   1.358       .  S
C1455      C1456   1.414       .  A
C1455      C1460   1.401       .  A
C1455      F1462   1.358       .  S
C1456      C1457   1.405       .  A
C1457      C1458   1.398       .  A
C1457      F1464   1.358       .  S
C1458      C1459   1.411       .  A
C1458      F1463   1.358       .  S
C1459      C1460   1.403       .  A
C1460      F1461   1.358       .  S
C1465      C1466   1.398       .  A
C1465      C1470   1.397       .  A
C1465      F1472   1.358       .  S
C1466      C1467   1.411       .  A
C1467      C1468   1.402       .  A
C1467      F1474   1.358       .  S
C1468      C1469   1.399       .  A
C1468      F1473   1.358       .  S
C1469      C1470   1.410       .  A
C1470      F1471   1.358       .  S
C1475      C1476   1.402       .  A
C1475      C1480   1.388       .  A
C1475      F1482   1.356       .  S
C1476      C1477   1.409       .  A
C1477      C1478   1.407       .  A
C1477      F1484   1.357       .  S
C1478      C1479   1.405       .  A
C1478      F1483   1.357       .  S
C1479      C1480   1.402       .  A
C1480      F1481   1.354       .  S
C1485      C1486   1.405       .  A
C1485      C1490   1.391       .  A
C1485      F1492   1.354       .  S
C1486      C1487   1.403       .  A
C1487      C1488   1.385       .  A
C1487      F1494   1.358       .  S
C1488      C1489   1.398       .  A
C1488      F1493   1.357       .  S
C1489      C1490   1.398       .  A
C1490      F1491   1.358       .  S
C1495      C1496   1.404       .  A
C1495      C1500   1.400       .  A
C1495      F1502   1.352       .  S
C1496      C1497   1.401       .  A
C1497      C1498   1.405       .  A
C1497      F1504   1.357       .  S
C1498      C1499   1.415       .  A
C1498      F1503   1.357       .  S
C1499      C1500   1.406       .  A
C1500      F1501   1.356       .  S
C1505      C1506   1.399       .  A
C1505      C1510   1.400       .  A
C1505      F1512   1.357       .  S
C1506      C1507   1.411       .  A
C1507      C1508   1.402       .  A
C1507      F1514   1.356       .  S
C1508      C1509   1.399       .  A
C1508      F1513   1.358       .  S
C1509      C1510   1.409       .  A
C1510      F1511   1.358       .  S
C1515      C1516   1.418       .  A
C1515      C1520   1.399       .  A
C1515      F1522   1.358       .  S
C1516      C1517   1.404       .  A
C1517      C1518   1.400       .  A
C1517      F1524   1.358       .  S
C1518      C1519   1.412       .  A
C1518      F1523   1.358       .  S
C1519      C1520   1.399       .  A
C1520      F1521   1.358       .  S
C1525      C1526   1.413       .  A
C1525      C1530   1.399       .  A
C1525      F1532   1.358       .  S
C1526      C1527   1.406       .  A
C1527      C1528   1.401       .  A
C1527      F1534   1.358       .  S
C1528      C1529   1.411       .  A
C1528      F1533   1.356       .  S
C1529      C1530   1.406       .  A
C1530      F1531   1.358       .  S
C1535      C1536   1.405       .  A
C1535      C2068   1.398       .  A
C1535      F1542   1.358       .  S
C1536      C2065   1.407       .  A
C1537      C2064   1.407   1_554  A
C1537      C1538   1.400       .  A
C1537      F1544   1.358       .  S
C1538      C1539   1.404       .  A
C1538      F1543   1.358       .  S
C1539      C1540   1.402       .  A
C1540      C2063   1.398   1_554  A
C1540      F1541   1.357       .  S
C1545      C1546   1.404       .  A
C1545      C1550   1.390       .  A
C1545      F1552   1.354       .  S
C1546      C1547   1.403       .  A
C1547      C1548   1.387       .  A
C1547      F1554   1.359       .  S
C1548      C1549   1.400       .  A
C1548      F1553   1.358       .  S
C1549      C1550   1.398       .  A
C1550      F1551   1.358       .  S
C1555      C1556   1.415       .  A
C1555      C1560   1.403       .  A
C1555      F1562   1.358       .  S
C1556      C1557   1.406       .  A
C1557      C1558   1.401       .  A
C1557      F1564   1.356       .  S
C1558      C1559   1.403       .  A
C1558      F1563   1.354       .  S
C1559      C1560   1.400       .  A
C1560      F1561   1.357       .  S
C1565      C1566   1.414       .  A
C1565      C1570   1.400       .  A
C1565      F1572   1.358       .  S
C1567      C1568   1.404       .  A
C1567      F1574   1.358       .  S
C1568      C1569   1.413       .  A
C1568      F1573   1.356       .  S
C1570      F1571   1.358       .  S
C1575      C1580   1.401       .  A
C1575      F1582   1.357   1_554  S
C1576      C1577   1.404       .  A
C1576      N1598   1.437   1_554  S
C1577      C1578   1.401       .  A
C1577      F1584   1.357       .  S
C1578      C1579   1.406       .  A
C1578      F1583   1.358       .  S
C1580      F1581   1.358       .  S
C1585      C1587   1.566       .  S
C1585      C1589   1.558       .  S
C1585      C1588   1.534       .  S
C1585      C2084   1.541       .  S
C1586      C1590   1.550       .  S
C1586      C1592   1.552       .  S
C1586      C1591   1.534       .  S
C1586      C2097   1.544       .  S
C1587      C1595   1.399       .  A
C1587      C1590   1.401       .  A
C1588      C1599   1.375       .  A
C1588      C1591   1.394       .  A
C1589      C1603   1.400       .  A
C1589      C1592   1.392       .  A
C1590      C1593   1.384       .  A
C1591      C1597   1.380       .  A
C1592      C1600   1.383       .  A
C1593      N1594   1.351       .  A
C1593      H1606   1.080       .  S
N1594      C1595   1.363       .  A
N1594      C1717   1.440       .  S
C1595      H1596   1.081       .  S
C1597      N1598   1.359       .  A
C1597      H1607   1.082       .  S
N1598      C1599   1.359       .  A
C1599      H1605   1.083       .  S
C1600      N1601   1.360       .  A
N1601      C1603   1.355       .  A
C1603      H1604   1.080       .  S
O1608      C1623   1.259       .  A
O1608     Al1616   1.915       .  S
C1609      O1619   1.258       .  A
C1609      O1610   1.253       .  A
C1609      C2054   1.487       .  S
O1610     Al1612   1.897       .  S
O1611      C1613   1.263       .  A
O1611     Al1612   1.878       .  S
Al1612     O1620   1.876       .  S
Al1612     O1622   1.900       .  S
Al1612     O1621   1.769       .  S
C1613      O1626   1.259       .  A
C1613      C2074   1.454       .  S
O1614      C1624   1.252       .  A
O1614     Al1616   1.859       .  S
O1615      C1628   1.265       .  A
O1615     Al1625   1.923       .  S
Al1616     O1629   1.857       .  S
Al1616     O1626   1.898       .  S
Al1616     O1621   1.793       .  S
O1617      C1624   1.268       .  A
O1617     Al1625   1.938       .  S
O1618      C1627   1.276       .  A
O1618     Al1625   1.968       .  S
O1619     Al1625   1.914       .  S
O1620      C1627   1.265       .  A
O1621     Al1625   1.790       .  S
O1622      C1623   1.258       .  A
C1623      C2087   1.468       .  S
C1624      C2044   1.488       .  S
C1627      C2034   1.473       .  S
C1628      O1629   1.254       .  A
C1628      C2064   1.464       .  S
C1630      C1632   1.567       .  S
C1630      C1634   1.558       .  S
C1630      C1633   1.534       .  S
C1630      C2027   1.543       .  S
C1631      C1635   1.548       .  S
C1631      C1637   1.549       .  S
C1631      C1636   1.530       .  S
C1631      C2057   1.540       .  S
C1632      C1640   1.399       .  A
C1632      C1635   1.400       .  A
C1633      C1644   1.373       .  A
C1633      C1636   1.394       .  A
C1634      C1648   1.400       .  A
C1634      C1637   1.393       .  A
C1635      C1638   1.385       .  A
C1636      C1642   1.378       .  A
C1637      C1645   1.380       .  A
C1638      N1639   1.350       .  A
C1638      H1651   1.081       .  S
N1639      C1640   1.362       .  A
N1639      C1695   1.440       .  S
C1640      H1641   1.081       .  S
C1642      N1643   1.357       .  A
C1642      H1652   1.082       .  S
N1643      C1644   1.359       .  A
N1643      C2067   1.433       .  S
C1644      H1650   1.083       .  S
C1645      N1646   1.358       .  A
C1645      H1647   1.081       .  S
N1646      C1648   1.356       .  A
N1646      C1698   1.445       .  S
C1648      H1649   1.080       .  S
O1653      C1668   1.261       .  A
O1653     Al1661   1.926       .  S
C1654      O1664   1.257   1_565  A
C1654      O1655   1.250       .  A
C1654      C2094   1.493       .  S
O1655     Al1657   1.895       .  S
O1656      C1658   1.263       .  A
O1656     Al1657   1.875       .  S
Al1657     O1665   1.870       .  S
Al1657     O1667   1.892       .  S
Al1657     O1666   1.771       .  S
C1658      C2014   1.456   1_565  S
O1659      C1669   1.252       .  A
O1660      C1673   1.265       .  A
O1660     Al1670   1.926       .  S
Al1661     O1666   1.799       .  S
O1662      C1669   1.265       .  A
O1663      C1672   1.276       .  A
O1663     Al1670   1.960       .  S
O1664     Al1670   1.920   1_545  S
O1665      C1672   1.265       .  A
O1666     Al1670   1.793       .  S
O1667      C1668   1.256       .  A
C1668      C2024   1.472       .  S
C1669      C2007   1.466       .  S
C1672      C1994   1.467       .  S
O1675      C1690   1.268       .  A
O1675     Al1683   1.883       .  S
C1676      O1686   1.248   1_545  A
C1676      O1677   1.272       .  A
O1677     Al1679   1.974   1_545  S
O1678      C1680   1.251       .  A
Al1679     O1687   1.865       .  S
Al1679     O1689   1.964       .  S
Al1679     O1688   1.766       .  S
C1680      O1693   1.265       .  A
C1680      C2037   1.472       .  S
O1682      C1695   1.249       .  A
O1682     Al1692   1.875       .  S
Al1683     O1696   1.985       .  S
Al1683     O1688   1.794       .  S
O1684      C1691   1.276   1_565  A
O1684     Al1692   1.920       .  S
O1685      C1694   1.265       .  A
O1685     Al1692   1.928       .  S
O1686     Al1692   1.852       .  S
O1687      C1694   1.252       .  A
O1688     Al1692   1.770       .  S
O1689      C1690   1.281       .  A
C1690      C1984   1.486       .  S
C1691      C2017   1.442       .  S
C1694      C2047   1.479       .  S
C1695      O1696   1.269       .  A
O1697      C1712   1.266       .  A
O1697     Al1705   1.881       .  S
C1698      O1708   1.247       .  A
C1698      O1699   1.271       .  A
O1699     Al1701   1.971       .  S
O1700      C1702   1.250       .  A
O1700     Al1701   1.858       .  S
Al1701     O1709   1.869       .  S
Al1701     O1711   1.965       .  S
Al1701     O1710   1.774       .  S
C1702      O1715   1.265       .  A
C1702      C1997   1.471       .  S
O1703      C1713   1.257       .  A
O1703     Al1705   1.867       .  S
O1704      C1717   1.247       .  A
O1704     Al1714   1.867       .  S
Al1705     O1718   1.988       .  S
Al1705     O1715   1.965       .  S
Al1705     O1710   1.794       .  S
O1706      C1713   1.274       .  A
O1706     Al1714   1.913       .  S
O1707      C1716   1.264       .  A
O1707     Al1714   1.919       .  S
O1708     Al1714   1.844       .  S
O1709      C1716   1.252       .  A
O1710     Al1714   1.770       .  S
O1711      C1712   1.281       .  A
C1712      C1977   1.491       .  S
C1713      C2077   1.443       .  S
C1716      C2004   1.470       .  S
C1717      O1718   1.269       .  A
C1719      C1721   1.566       .  S
C1719      C1723   1.558       .  S
C1719      C1722   1.537       .  S
C1719      C1944   1.542       .  S
C1720      C1724   1.545       .  S
C1720      C1726   1.551       .  S
C1720      C1725   1.529       .  S
C1720      C1954   1.538       .  S
C1721      C1729   1.399       .  A
C1721      C1724   1.398       .  A
C1722      C1733   1.374       .  A
C1722      C1725   1.395       .  A
C1723      C1737   1.400       .  A
C1723      C1726   1.393       .  A
C1724      C1727   1.382       .  A
C1725      C1731   1.378       .  A
C1726      C1734   1.384       .  A
C1727      N1728   1.350       .  A
C1727      H1740   1.081       .  S
N1728      C1729   1.362       .  A
N1728      C1829   1.439       .  S
C1729      H1730   1.081       .  S
C1731      N1732   1.357       .  A
C1731      H1741   1.082       .  S
N1732      C1733   1.360       .  A
N1732      C1964   1.434       .  S
C1733      H1739   1.083       .  S
C1734      N1735   1.359       .  A
N1735      C1737   1.355       .  A
C1737      H1738   1.080       .  S
O1742      C1757   1.260       .  A
O1742     Al1750   1.924       .  S
C1743      O1753   1.254       .  A
C1743      O1744   1.250       .  A
C1743      C1914   1.485       .  S
O1744     Al1746   1.894       .  S
O1745      C1747   1.265       .  A
O1745     Al1746   1.865       .  S
Al1746     O1754   1.867       .  S
Al1746     O1756   1.898       .  S
Al1746     O1755   1.767       .  S
C1747      O1760   1.263       .  A
C1747      C1934   1.451       .  S
O1748      C1758   1.251       .  A
O1748     Al1750   1.855       .  S
O1749      C1762   1.264       .  A
O1749     Al1759   1.917       .  S
Al1750     O1763   1.860       .  S
Al1750     O1760   1.900       .  S
Al1750     O1755   1.791       .  S
O1751      C1758   1.267       .  A
O1751     Al1759   1.931       .  S
O1752      C1761   1.280       .  A
O1752     Al1759   1.974       .  S
O1753     Al1759   1.914       .  S
O1754      C1761   1.267       .  A
O1755     Al1759   1.786       .  S
O1756      C1757   1.255       .  A
C1757      C1947   1.472       .  S
C1758      C1904   1.487       .  S
C1761      C1894   1.469       .  S
C1762      O1763   1.255       .  A
C1762      C1924   1.470       .  S
C1764      C1766   1.542       .  S
C1764      C1768   1.546       .  S
C1764      C1767   1.542       .  S
C1764      C1884   1.529       .  S
C1765      C1769   1.550       .  S
C1765      C1771   1.555       .  S
C1765      C1770   1.549       .  S
C1765      C1917   1.537       .  S
C1766      C1774   1.392       .  A
C1766      C1769   1.386       .  A
C1767      C1778   1.380       .  A
C1767      C1770   1.423       .  A
C1768      C1782   1.392       .  A
C1768      C1771   1.378       .  A
C1769      C1772   1.391       .  A
C1770      C1776   1.382       .  A
C1771      C1779   1.392       .  A
C1772      N1773   1.356       .  A
C1772      H1785   1.080       .  S
N1773      C1774   1.361       .  A
N1773      C1851   1.442       .  S
C1774      H1775   1.083       .  S
C1776      N1777   1.351       .  A
C1776      H1786   1.083       .  S
N1777      C1778   1.354       .  A
C1778      H1784   1.083       .  S
C1779      N1780   1.365       .  A
C1779      H1781   1.082       .  S
N1780      C1782   1.347       .  A
N1780      C1810   1.445       .  S
C1782      H1783   1.082       .  S
O1787      C1802   1.257       .  A
O1787     Al1795   1.929       .  S
C1788      O1798   1.254       .  A
C1788      O1789   1.241       .  A
C1788      C1957   1.486       .  S
O1789     Al1791   1.870       .  S
O1790      C1792   1.268   1_565  A
O1790     Al1791   1.867       .  S
Al1791     O1799   1.871       .  S
Al1791     O1801   1.880       .  S
Al1791     O1800   1.759       .  S
C1792      C1874   1.455       .  S
O1793      C1803   1.253       .  A
O1794      C1807   1.260       .  A
O1794     Al1804   1.905       .  S
Al1795     O1800   1.793       .  S
O1796      C1803   1.266       .  A
O1797      C1806   1.282       .  A
O1797     Al1804   1.964       .  S
O1798     Al1804   1.929       .  S
O1799      C1806   1.272       .  A
O1800     Al1804   1.778       .  S
O1801      C1802   1.251       .  A
C1802      C1887   1.463       .  S
C1803      C1864   1.468       .  S
C1806      C1857   1.464       .  S
O1809      C1824   1.267       .  A
O1809     Al1817   1.869       .  S
C1810      O1820   1.245       .  A
C1810      O1811   1.273       .  A
O1811     Al1813   1.972       .  S
O1812      C1814   1.250       .  A
O1812     Al1813   1.861       .  S
Al1813     O1821   1.832       .  S
Al1813     O1823   1.995       .  S
Al1813     O1822   1.760       .  S
C1814      O1827   1.266       .  A
C1814      C1854   1.473       .  S
O1815      C1825   1.256       .  A
O1815     Al1817   1.839       .  S
O1816      C1829   1.247       .  A
O1816     Al1826   1.874       .  S
Al1817     O1830   1.984       .  S
Al1817     O1827   1.975       .  S
Al1817     O1822   1.793       .  S
O1818      C1825   1.281       .  A
O1818     Al1826   1.937       .  S
O1819      C1828   1.266       .  A
O1819     Al1826   1.929       .  S
O1820     Al1826   1.848       .  S
O1821      C1828   1.248       .  A
O1822     Al1826   1.767       .  S
O1823      C1824   1.286       .  A
C1824      C1974   1.483       .  S
C1825      C1937   1.434       .  S
C1828      C1867   1.458       .  S
C1829      O1830   1.266       .  A
O1831      C1846   1.266       .  A
O1831     Al1839   1.884       .  S
C1832      O1842   1.249       .  A
C1832      O1833   1.272       .  A
O1833     Al1835   1.973       .  S
O1834      C1836   1.253       .  A
Al1835     O1843   1.857       .  S
Al1835     O1845   1.964       .  S
Al1835     O1844   1.766       .  S
C1836      O1849   1.271       .  A
C1836      C1897   1.477       .  S
O1838      C1851   1.248       .  A
O1838     Al1848   1.873       .  S
Al1839     O1852   1.999       .  S
Al1839     O1844   1.788       .  S
O1840      C1847   1.275       .  A
O1840     Al1848   1.931       .  S
O1841      C1850   1.268       .  A
O1841     Al1848   1.937       .  S
O1842     Al1848   1.857       .  S
O1843      C1850   1.252       .  A
O1844     Al1848   1.768       .  S
O1845      C1846   1.278       .  A
C1846      C1987   1.482       .  S
C1847      C1877   1.443   1_565  S
C1850      C1907   1.476       .  S
C1851      O1852   1.273       .  A
C1853      C1854   1.401       .  A
C1853      C1858   1.404       .  A
C1853      F1860   1.357       .  S
C1854      C1855   1.410       .  A
C1855      C1856   1.395       .  A
C1855      F1862   1.358       .  S
C1856      C1857   1.397       .  A
C1856      F1861   1.358       .  S
C1857      C1858   1.410       .  A
C1858      F1859   1.358       .  S
C1863      C1864   1.417       .  A
C1863      C1868   1.394       .  A
C1863      F1870   1.358       .  S
C1864      C1865   1.399       .  A
C1865      C1866   1.390       .  A
C1865      F1872   1.358       .  S
C1866      C1867   1.408       .  A
C1866      F1871   1.356       .  S
C1867      C1868   1.394       .  A
C1868      F1869   1.358       .  S
C1873      C1874   1.405       .  A
C1873      C1878   1.389       .  A
C1873      F1880   1.359       .  S
C1874      C1875   1.404       .  A
C1875      C1876   1.392       .  A
C1875      F1882   1.358   1_545  S
C1876      C1877   1.399       .  A
C1876      F1881   1.358   1_545  S
C1877      C1878   1.398       .  A
C1878      F1879   1.359       .  S
C1883      C1884   1.412       .  A
C1883      C1888   1.377       .  A
C1883      F1890   1.360       .  S
C1884      C1885   1.412       .  A
C1885      C1886   1.416       .  A
C1885      F1892   1.356       .  S
C1886      C1887   1.413       .  A
C1886      F1891   1.357       .  S
C1887      C1888   1.393       .  A
C1888      F1889   1.358       .  S
C1893      C1894   1.412       .  A
C1893      C1898   1.405       .  A
C1893      F1900   1.357       .  S
C1894      C1895   1.397       .  A
C1895      C1896   1.396       .  A
C1895      F1902   1.358       .  S
C1896      C1897   1.411       .  A
C1896      F1901   1.357       .  S
C1897      C1898   1.400       .  A
C1898      F1899   1.357       .  S
C1903      C1904   1.420       .  A
C1903      C1908   1.398       .  A
C1903      F1910   1.357       .  S
C1904      C1905   1.404       .  A
C1905      C1906   1.399       .  A
C1905      F1912   1.358       .  S
C1906      C1907   1.413       .  A
C1906      F1911   1.358       .  S
C1907      C1908   1.397       .  A
C1908      F1909   1.358       .  S
C1913      C1914   1.408       .  A
C1913      C1918   1.402       .  A
C1913      F1920   1.357       .  S
C1914      C1915   1.412       .  A
C1915      C1916   1.395       .  A
C1915      F1922   1.358       .  S
C1916      C1917   1.405       .  A
C1916      F1921   1.357       .  S
C1917      C1918   1.409       .  A
C1918      F1919   1.357       .  S
C1923      C1924   1.408       .  A
C1923      C1928   1.398       .  A
C1923      F1930   1.358       .  S
C1924      C1925   1.407       .  A
C1925      C1926   1.400       .  A
C1925      F1932   1.358       .  S
C1926      C1927   1.402       .  A
C1927      C1928   1.402       .  A
C1928      F1929   1.357       .  S
C1933      C1934   1.404       .  A
C1933      C1938   1.384       .  A
C1933      F1940   1.359       .  S
C1934      C1935   1.402       .  A
C1935      C1936   1.388       .  A
C1935      F1942   1.356       .  S
C1936      C1937   1.399       .  A
C1936      F1941   1.358       .  S
C1937      C1938   1.396       .  A
C1938      F1939   1.358       .  S
C1943      C1944   1.414       .  A
C1943      C1948   1.405       .  A
C1943      F1950   1.358       .  S
C1944      C1945   1.404       .  A
C1945      C1946   1.399       .  A
C1945      F1952   1.356       .  S
C1946      C1947   1.405       .  A
C1946      F1951   1.355       .  S
C1947      C1948   1.401       .  A
C1948      F1949   1.357       .  S
C1953      C1954   1.412       .  A
C1953      C1958   1.402       .  A
C1953      F1960   1.357       .  S
C1955      C1956   1.397       .  A
C1955      F1962   1.358       .  S
C1956      C1957   1.415       .  A
C1956      F1961   1.358       .  S
C1958      F1959   1.357       .  S
C1963      C1968   1.399       .  A
C1963      F1970   1.357       .  S
C1964      C1965   1.402       .  A
C1965      F1972   1.357       .  S
C1966      C1967   1.408       .  A
C1966      F1971   1.359       .  S
C1968      F1969   1.358       .  S
C1973      C1974   1.411       .  A
C1973      C1978   1.396   1_455  A
C1973      F1980   1.358       .  S
C1974      C1975   1.401       .  A
C1975      C1976   1.403   1_455  A
C1975      F1982   1.357       .  S
C1976      C1977   1.418       .  A
C1976      F1981   1.358       .  S
C1977      C1978   1.406       .  A
C1978      F1979   1.358       .  S
C1983      C1984   1.414       .  A
C1983      C1988   1.401       .  A
C1983      F1990   1.358       .  S
C1984      C1985   1.405       .  A
C1985      C1986   1.398       .  A
C1985      F1992   1.358       .  S
C1986      C1987   1.411       .  A
C1986      F1991   1.358       .  S
C1987      C1988   1.403       .  A
C1988      F1989   1.358       .  S
C1993      C1994   1.398       .  A
C1993      C1998   1.397       .  A
C1993      F2000   1.358       .  S
C1994      C1995   1.411       .  A
C1995      C1996   1.402       .  A
C1995      F2002   1.358       .  S
C1996      C1997   1.399       .  A
C1996      F2001   1.358       .  S
C1997      C1998   1.410       .  A
C1998      F1999   1.358       .  S
C2003      C2004   1.402       .  A
C2003      C2008   1.388       .  A
C2003      F2010   1.356       .  S
C2004      C2005   1.409       .  A
C2005      C2006   1.407       .  A
C2005      F2012   1.357       .  S
C2006      C2007   1.405       .  A
C2006      F2011   1.357       .  S
C2007      C2008   1.402       .  A
C2008      F2009   1.354       .  S
C2013      C2014   1.405       .  A
C2013      C2018   1.391       .  A
C2013      F2020   1.354       .  S
C2014      C2015   1.403       .  A
C2015      C2016   1.385       .  A
C2015      F2022   1.358       .  S
C2016      C2017   1.398       .  A
C2016      F2021   1.357       .  S
C2017      C2018   1.398       .  A
C2018      F2019   1.358       .  S
C2023      C2024   1.404       .  A
C2023      C2028   1.400       .  A
C2023      F2030   1.352       .  S
C2024      C2025   1.401       .  A
C2025      C2026   1.405       .  A
C2025      F2032   1.357       .  S
C2026      C2027   1.415       .  A
C2026      F2031   1.357       .  S
C2027      C2028   1.406       .  A
C2028      F2029   1.356       .  S
C2033      C2034   1.399       .  A
C2033      C2038   1.400       .  A
C2033      F2040   1.357       .  S
C2034      C2035   1.411       .  A
C2035      C2036   1.402       .  A
C2035      F2042   1.356       .  S
C2036      C2037   1.399       .  A
C2036      F2041   1.358       .  S
C2037      C2038   1.409       .  A
C2038      F2039   1.358       .  S
C2043      C2044   1.418       .  A
C2043      C2048   1.399       .  A
C2043      F2050   1.358       .  S
C2044      C2045   1.404       .  A
C2045      C2046   1.400       .  A
C2045      F2052   1.358       .  S
C2046      C2047   1.412       .  A
C2046      F2051   1.358       .  S
C2047      C2048   1.399       .  A
C2048      F2049   1.358       .  S
C2053      C2054   1.413       .  A
C2053      C2058   1.399       .  A
C2053      F2060   1.358       .  S
C2054      C2055   1.406       .  A
C2055      C2056   1.401       .  A
C2055      F2062   1.358       .  S
C2056      C2057   1.411       .  A
C2056      F2061   1.356       .  S
C2057      C2058   1.406       .  A
C2058      F2059   1.358       .  S
C2063      C2064   1.405       .  A
C2063      F2070   1.358       .  S
C2065      C2066   1.400       .  A
C2065      F2072   1.358       .  S
C2066      C2067   1.404       .  A
C2066      F2071   1.358       .  S
C2067      C2068   1.402       .  A
C2068      F2069   1.357       .  S
C2073      C2074   1.404       .  A
C2073      C2078   1.390       .  A
C2073      F2080   1.354       .  S
C2074      C2075   1.403       .  A
C2075      C2076   1.387       .  A
C2075      F2082   1.359       .  S
C2076      C2077   1.400       .  A
C2076      F2081   1.358       .  S
C2077      C2078   1.398       .  A
C2078      F2079   1.358       .  S
C2083      C2084   1.415       .  A
C2083      C2088   1.403       .  A
C2083      F2090   1.358       .  S
C2084      C2085   1.406       .  A
C2085      C2086   1.401       .  A
C2085      F2092   1.356       .  S
C2086      C2087   1.403       .  A
C2086      F2091   1.354       .  S
C2087      C2088   1.400       .  A
C2088      F2089   1.357       .  S
C2093      C2094   1.414       .  A
C2093      C2098   1.400       .  A
C2093      F2100   1.358       .  S
C2095      C2096   1.404       .  A
C2095      F2102   1.358       .  S
C2096      C2097   1.413       .  A
C2096      F2101   1.356       .  S
C2098      F2099   1.358       .  S
C2103      C2108   1.401       .  A
C2103      F2110   1.357       .  S
C2104      C2105   1.404       .  A
C2105      C2106   1.401       .  A
C2105      F2112   1.357       .  S
C2106      C2107   1.406       .  A
C2106      F2111   1.358       .  S
C2108      F2109   1.358       .  S
