geometry optimzed in LAMMPS
_audit_creation_date              2020-12-01 
_audit_creation_method            'lammps2cif' 
_symmetry_space_group_name_H-M    'P1' 
_symmetry_Int_Tables_number       1 
_symmetry_cell_setting            triclinic 
loop_ 
_symmetry_equiv_pos_as_xyz 
  x,y,z 
_cell_length_a                    43.08599521 
_cell_length_b                    40.14239951575306 
_cell_length_c                    56.663090530150896 
_cell_angle_alpha                 90.07145683787293 
_cell_angle_beta                  116.94272614682308 
_cell_angle_gamma                 90.36181482874356 
loop_ 
_atom_site_label 
_atom_site_type_symbol 
_atom_site_fract_x 
_atom_site_fract_y 
_atom_site_fract_z 
_atom_site_charge 
In1        In  0.46234294  0.99436808  0.40597503     1.36900
C2          C  0.47855928  0.43239386  0.39739029     0.78000
O3          O  0.51026709  0.99361331  0.44522224    -0.60500
O4          O  0.46128102  0.49719963  0.44545537    -0.51400
C5          C  0.48120440  0.05435219  0.39539363     0.70600
O6          O  0.48761102  0.02740932  0.38688136    -0.46200
C7          C  0.39415257  0.49583384  0.37218663     0.75300
O8          O  0.49545018  0.45781011  0.39649994    -0.58100
O9          O  0.40520334  0.49169638  0.39679289    -0.48200
O10         O  0.45376830  0.43893068  0.40258215    -0.54500
C11         C  0.49395662  0.49558982  0.45882174     0.85500
O12         O  0.46523349  0.05028140  0.40913918    -0.56400
O13         O  0.41796421  0.99912641  0.36520212    -0.59700
In14       In  0.51337437  0.24565970  0.34609766     1.36900
C15         C  0.45918942  0.24568834  0.29750268     0.78000
O16         O  0.52183788  0.19005892  0.34935555    -0.60500
O17         O  0.50412022  0.21236864  0.37475515    -0.51400
C18         C  0.57129996  0.25360235  0.34071396     0.70600
O19         O  0.54142651  0.26054247  0.32283208    -0.46200
C20         C  0.50663004  0.29937895  0.37163011     0.75300
O21         O  0.47636059  0.27154283  0.30854138    -0.58100
O22         O  0.48162996  0.28008226  0.35798281    -0.48200
O23         O  0.46993858  0.21982686  0.31131193    -0.54500
C24         C  0.51175331  0.18563980  0.36680447     0.85500
O25         O  0.57177825  0.24255998  0.36170988    -0.56400
O26         O  0.53573039  0.28925420  0.37441896    -0.59700
C27         C  0.32705352  0.24574940  0.20108519     0.30400
C28         C  0.26229714  0.24594677  0.15806709     0.30400
C29         C  0.30772337  0.27918392  0.19481869    -0.05800
C30         C  0.32593330  0.23600706  0.17461268    -0.06600
C31         C  0.29990845  0.22250028  0.20266868    -0.06500
C32         C  0.27494721  0.27955592  0.17282051    -0.05800
C33         C  0.29310459  0.23710711  0.15205469    -0.06600
C34         C  0.26744501  0.22184523  0.18075611    -0.06500
C35         C  0.25887791  0.30857865  0.17446243    -0.31900
N36         N  0.28025367  0.32489552  0.19709565     0.14600
C37         C  0.30947548  0.30669774  0.20986358    -0.31900
H38         H  0.32936640  0.31192604  0.22972990     0.16600
C39         C  0.30062943  0.24544628  0.13127777    -0.30800
N40         N  0.33560091  0.24622855  0.14019007     0.13400
C41         C  0.35102621  0.24114951  0.16651123    -0.30800
C42         C  0.24742253  0.19881040  0.18603003    -0.31100
N43         N  0.26693590  0.18601720  0.21057392     0.13900
H44         H  0.22089600  0.19151721  0.17285296     0.16500
C45         C  0.29857435  0.20120163  0.22110122    -0.31100
H46         H  0.31901661  0.19725249  0.24093019     0.16500
H47         H  0.37865083  0.24401221  0.17933013     0.16500
H48         H  0.23235932  0.31570988  0.16161221     0.16600
H49         H  0.28233226  0.25367636  0.11174728     0.16500
In50       In  0.99859518  0.50137909  0.10228055     1.36900
C51         C  0.05678691  0.49464898  0.14744961     0.78000
O52         O  0.98917791  0.44603088  0.09712603    -0.60500
O53         O  0.01191532  0.46932150  0.07522098    -0.51400
C54         C  0.93825266  0.51016752  0.10395441     0.70600
O55         O  0.96748134  0.01748579  0.12273311    -0.46200
C56         C  0.00264964  0.06087575  0.08268808     0.75300
O57         O  0.02751450  0.48476180  0.14467891    -0.58100
O58         O  0.99498418  0.03467640  0.06867345    -0.48200
O59         O  0.05613055  0.00745104  0.12695133    -0.54500
C60         C  0.00240593  0.44232714  0.08150441     0.85500
O61         O  0.93961314  0.49822652  0.08380220    -0.56400
O62         O  0.00774903  0.05623909  0.10611435    -0.59700
C63         C  0.18404230  0.49659124  0.24796043     0.30400
C64         C  0.24699426  0.49769748  0.29277889     0.30400
C65         C  0.20226432  0.03074332  0.25586111    -0.05800
C66         C  0.18289157  0.48637631  0.27377648    -0.06600
C67         C  0.21217002  0.47413488  0.24780478    -0.06500
C68         C  0.23424463  0.03133777  0.27850111    -0.05800
C69         C  0.21520561  0.48707686  0.29717215    -0.06600
C70         C  0.24380685  0.47453153  0.27022989    -0.06500
C71         C  0.24843676  0.06253343  0.27979463    -0.31900
N72         N  0.22663107  0.08040576  0.25837407     0.14600
C73         C  0.19782006  0.06156797  0.24421091    -0.31900
H74         H  0.17682018  0.06863607  0.22537979     0.16600
C75         C  0.20678646  0.49292707  0.31783699    -0.30800
N76         N  0.17172603  0.49369914  0.30800950     0.13400
C77         C  0.15735254  0.49173929  0.28148630    -0.30800
C78         C  0.26439348  0.45109944  0.26644846    -0.31100
N79         N  0.24567341  0.43654028  0.24235688     0.13900
H80         H  0.29076902  0.44479091  0.28038382     0.16500
C81         C  0.21374514  0.45061479  0.23081225    -0.31100
H82         H  0.19270372  0.44321799  0.21192360     0.16500
H83         H  0.13008973  0.49636906  0.26880558     0.16500
H84         H  0.27410563  0.07079713  0.29402137     0.16600
H85         H  0.22462838  0.49829871  0.33825074     0.16500
In86       In  0.04847072  0.25111357  0.04215121     1.36900
C87         C  0.03001074  0.19101062  0.05181330     0.78000
O88         O  0.99983902  0.25139686  0.50341577    -0.60500
O89         O  0.04843588  0.25132804  0.50223541    -0.51400
C90         C  0.03152092  0.31175265  0.05184767     0.70600
O91         O  0.01836954  0.28531648  0.05564320    -0.46200
C92         C  0.11578446  0.24975022  0.07760127     0.75300
O93         O  0.02180092  0.21775100  0.05927264    -0.58100
O94         O  0.10596734  0.24852728  0.05292236    -0.48200
O95         O  0.04744651  0.19514562  0.03918811    -0.54500
C96         C  0.01559389  0.25112969  0.48935068     0.85500
O97         O  0.05300320  0.30696196  0.04275659    -0.56400
O98         O  0.09120384  0.25189294  0.08375476    -0.59700
In99       In  0.54429400  0.99418944  0.04071603     1.36900
C100        C  0.52549772  0.43348231  0.04958449     0.78000
O101        O  0.49563223  0.99502900  0.50170782    -0.60500
O102        O  0.54455538  0.49566966  0.50107885    -0.51400
C103        C  0.52633739  0.05327314  0.05228471     0.70600
O104        O  0.52032869  0.02615973  0.06076316    -0.46200
C105        C  0.61287570  0.49625201  0.07400061     0.75300
O106        O  0.51442548  0.46007007  0.05486539    -0.58100
O107        O  0.60132231  0.49392767  0.04921912    -0.48200
O108        O  0.54604592  0.43800691  0.03960744    -0.54500
C109        C  0.51179558  0.49556597  0.48791699     0.85500
O110        O  0.54081804  0.04991491  0.03744234    -0.56400
O111        O  0.58938311  0.99751029  0.08137522    -0.59700
In112      In  0.00682364  0.49744663  0.34520071     1.36900
C113        C  0.95060333  0.99470643  0.29815861     0.78000
O114        O  0.02938454  0.44846077  0.36487121    -0.60500
O115        O  0.98237531  0.46384492  0.36428497    -0.51400
C116        C  0.06556680  0.49516319  0.34088462     0.70600
O117        O  0.03982219  0.97621381  0.32806489    -0.46200
C118        C  0.00523977  0.05699734  0.36577586     0.75300
O119        O  0.98091594  0.49785543  0.30049746    -0.58100
O120        O  0.01176960  0.03058351  0.37924312    -0.48200
O121        O  0.94921706  0.99318177  0.31981703    -0.54500
C122        C  0.00475890  0.44126035  0.37013599     0.85500
O123        O  0.06163864  0.51499714  0.35666050    -0.56400
O124        O  0.00071675  0.05274880  0.34240787    -0.59700
C125        C  0.82417082  0.49354684  0.19718733     0.30400
C126        C  0.75992100  0.49698396  0.15384758     0.30400
C127        C  0.80561464  0.02700585  0.19244307    -0.05800
C128        C  0.82410413  0.48764137  0.17023303    -0.06600
C129        C  0.79687410  0.46881788  0.19622854    -0.06500
C130        C  0.77301649  0.02901596  0.17069077    -0.05800
C131        C  0.79094439  0.48945055  0.14749026    -0.06600
C132        C  0.76447468  0.47034671  0.17458462    -0.06500
C133        C  0.75978199  0.05979583  0.17216565    -0.31900
N134        N  0.78326017  0.07572033  0.19434806     0.14600
C135        C  0.81172329  0.05629266  0.20629649    -0.31900
H136        H  0.83440826  0.06229480  0.22464569     0.16600
C137        C  0.79790878  0.50007444  0.12689075    -0.30800
N138        N  0.83274852  0.50371584  0.13601705     0.13400
C139        C  0.84835885  0.49759382  0.16216830    -0.30800
C140        C  0.74364218  0.44728163  0.17881017    -0.31100
N141        N  0.76274697  0.43278912  0.20268032     0.13900
H142        H  0.71644176  0.44205318  0.16594508     0.16500
C143        C  0.79549284  0.44519979  0.21313291    -0.31100
H144        H  0.81665912  0.43774300  0.23180677     0.16500
H145        H  0.87540016  0.50334004  0.17471916     0.16500
H146        H  0.73400777  0.06890816  0.15928922     0.16600
H147        H  0.77910869  0.50797110  0.10742450     0.16500
In148      In  0.49777665  0.24420462  0.10205548     1.36900
C149        C  0.55779134  0.24105025  0.14620719     0.78000
O150        O  0.49516221  0.18845158  0.10252587    -0.60500
O151        O  0.50362757  0.21118073  0.07218180    -0.51400
C152        C  0.43782458  0.25054054  0.10443817     0.70600
O153        O  0.46659242  0.26145654  0.12174053    -0.46200
C154        C  0.49925371  0.30302543  0.08056053     0.75300
O155        O  0.52914143  0.23194701  0.14509204    -0.58100
O156        O  0.49569616  0.27596140  0.06809138    -0.48200
O157        O  0.55572281  0.25128141  0.12453944    -0.54500
C158        C  0.50096280  0.18436498  0.08281987     0.85500
O159        O  0.43927895  0.23612306  0.08514530    -0.56400
O160        O  0.50139058  0.29950900  0.10329420    -0.59700
C161        C  0.68572034  0.24414020  0.24615088     0.30400
C162        C  0.74944944  0.24808288  0.28999926     0.30400
C163        C  0.70328553  0.27852454  0.25248819    -0.05800
C164        C  0.68546430  0.23599380  0.27253580    -0.06600
C165        C  0.71386312  0.22172067  0.24616662    -0.06500
C166        C  0.73602647  0.28062180  0.27426630    -0.05800
C167        C  0.71819038  0.23836134  0.29561352    -0.06600
C168        C  0.74583553  0.22303569  0.26829967    -0.06500
C169        C  0.74913055  0.31184409  0.27343912    -0.31900
N170        N  0.72522250  0.32810280  0.25188074     0.14600
C171        C  0.69651469  0.30863615  0.24000182    -0.31900
H172        H  0.67353576  0.31515141  0.22213304     0.16600
C173        C  0.71004582  0.24842629  0.31577224    -0.30800
N174        N  0.67507610  0.25078842  0.30608888     0.13400
C175        C  0.66035556  0.24465357  0.27994226    -0.30800
C176        C  0.76693935  0.20066626  0.26395973    -0.31100
N177        N  0.74848597  0.18675874  0.23958100     0.13900
H178        H  0.79368952  0.19490149  0.27744603     0.16500
C179        C  0.71592154  0.19935296  0.22865132    -0.31100
H180        H  0.69498211  0.19202777  0.20970379     0.16500
H181        H  0.63325363  0.24916130  0.26670877     0.16500
H182        H  0.77516717  0.32093523  0.28602675     0.16600
H183        H  0.72805812  0.25693252  0.33537372     0.16500
In184      In  0.96325159  0.24788814  0.40755635     1.36900
C185        C  0.98180729  0.18821801  0.39712202     0.78000
O186        O  0.01248827  0.24935555  0.44604954    -0.60500
O187        O  0.96406770  0.24984742  0.44755828    -0.51400
C188        C  0.98082578  0.30884450  0.39912792     0.70600
O189        O  0.99226266  0.28275547  0.39334521    -0.46200
C190        C  0.89510871  0.24792717  0.37294598     0.75300
O191        O  0.98833691  0.21518372  0.38875869    -0.58100
O192        O  0.90574553  0.24194098  0.39728807    -0.48200
O193        O  0.96620359  0.19194810  0.41113402    -0.54500
C194        C  0.99692960  0.25020636  0.46026446     0.85500
O195        O  0.96067106  0.30347355  0.40937819    -0.56400
O196        O  0.91929288  0.25337136  0.36674614    -0.59700
C197        C  0.78705567  0.24945021  0.31255821    -0.05100
C198        C  0.79562595  0.23947249  0.33866154    -0.32500
C199        C  0.83027529  0.23994782  0.35876475     0.36700
C200        C  0.85771578  0.24875553  0.35287501    -0.05400
C201        C  0.84942214  0.25790557  0.32681064    -0.32400
C202        C  0.81485547  0.25857986  0.30693185     0.36700
H203        H  0.77596660  0.23000554  0.34369045     0.17000
O204        O  0.83699764  0.23056293  0.38387621    -0.59900
H205        H  0.86995389  0.26436450  0.32156152     0.17000
O206        O  0.80865083  0.26588752  0.28148103    -0.60000
H207        H  0.81885146  0.28832656  0.28220323     0.44000
H208        H  0.83361053  0.25099650  0.39227585     0.44000
C209        C  0.65206199  0.24143295  0.22006248    -0.05100
C210        C  0.65122144  0.25633860  0.19725895    -0.32500
C211        C  0.62084635  0.25679885  0.17327573     0.36700
C212        C  0.59079960  0.24015614  0.17099153    -0.05400
C213        C  0.59254489  0.22200464  0.19270193    -0.32400
C214        C  0.62305061  0.22178331  0.21689825     0.36700
H215        H  0.67433431  0.26804051  0.19801253     0.17000
O216        O  0.62098398  0.27359469  0.15225138    -0.59900
H217        H  0.57038012  0.20721766  0.19075971     0.17000
O218        O  0.62551036  0.19958992  0.23608953    -0.60000
H219        H  0.60483049  0.20323570  0.23911145     0.44000
H220        H  0.61473697  0.29685278  0.15414493     0.44000
C221        C  0.73259446  0.35576297  0.23919057    -0.05100
C222        C  0.75042314  0.38372905  0.25403101    -0.32500
C223        C  0.75975770  0.40977584  0.24206157     0.36700
C224        C  0.75093053  0.40797953  0.21488295    -0.05400
C225        C  0.73238707  0.38048558  0.19996697    -0.32400
C226        C  0.72375111  0.35423294  0.21192603     0.36700
H227        H  0.75730814  0.38516425  0.27491607     0.17000
O228        O  0.77665229  0.43727385  0.25679576    -0.59900
H229        H  0.72610695  0.37868163  0.17920529     0.17000
O230        O  0.70815666  0.32650322  0.19698403    -0.60000
H231        H  0.72741875  0.31080923  0.20045375     0.44000
H232        H  0.80073619  0.42989034  0.26846129     0.44000
C233        C  0.77648572  0.10474351  0.20607295    -0.05100
C234        C  0.76074941  0.13264094  0.19047781    -0.32500
C235        C  0.75231695  0.16034397  0.20146516     0.36700
C236        C  0.75978810  0.16028144  0.22839688    -0.05400
C237        C  0.77608929  0.13271641  0.24402256    -0.32400
C238        C  0.78426136  0.10504043  0.23309449     0.36700
H239        H  0.75488387  0.13280321  0.16976053     0.17000
O240        O  0.73761437  0.18769052  0.18601944    -0.59900
H241        H  0.78113408  0.13208660  0.26456338     0.17000
O242        O  0.79743155  0.07743502  0.24852756    -0.60000
H243        H  0.82174189  0.08344827  0.26111151     0.44000
H244        H  0.71328970  0.18100387  0.17395985     0.44000
C245        C  0.00232545  0.09036421  0.37583840    -0.05100
C246        C  0.00599061  0.11879738  0.36287497    -0.32500
C247        C  0.00057112  0.15075057  0.37015766     0.36700
C248        C  0.99078584  0.15489360  0.39059148    -0.05400
C249        C  0.98791904  0.12647820  0.40402840    -0.32400
C250        C  0.99355366  0.09444281  0.39679745     0.36700
H251        H  0.01260742  0.11625374  0.34665294     0.17000
O252        O  0.00318792  0.17756421  0.35618011    -0.59900
H253        H  0.98052764  0.12899812  0.41984614     0.17000
O254        O  0.98909072  0.06732187  0.40967692    -0.60000
H255        H  0.96394803  0.06167090  0.39998644     0.44000
H256        H  0.02805541  0.18436936  0.36530559     0.44000
C257        C  0.00136365  0.40828759  0.38058079    -0.05100
C258        C  0.02044891  0.38121556  0.37840036    -0.32500
C259        C  0.01484901  0.34889745  0.38508220     0.36700
C260        C  0.98950172  0.34302194  0.39389537    -0.05400
C261        C  0.97152824  0.37033485  0.39718442    -0.32400
C262        C  0.97742420  0.40269910  0.39078582     0.36700
H263        H  0.03914828  0.38490360  0.37075224     0.17000
O264        O  0.03385131  0.32321801  0.38237828    -0.59900
H265        H  0.95231779  0.36658761  0.40432853     0.17000
O266        O  0.95920680  0.42856462  0.39422057    -0.60000
H267        H  0.97392487  0.43676832  0.41249064     0.44000
H268        H  0.05501180  0.32200533  0.39965098     0.44000
C269        C  0.85763523  0.49183143  0.22350932    -0.05100
C270        C  0.88985568  0.48227850  0.22501291    -0.32500
C271        C  0.92054631  0.48431879  0.24889218     0.36700
C272        C  0.91912999  0.49313869  0.27241163    -0.05400
C273        C  0.88678101  0.99938407  0.27158132    -0.32400
C274        C  0.85627287  0.99904284  0.24755768     0.36700
H275        H  0.89169155  0.47204806  0.20815183     0.17000
O276        O  0.95155328  0.47608065  0.24917598    -0.59900
H277        H  0.88506843  0.00493615  0.28967726     0.17000
O278        O  0.82475154  0.00392217  0.24771238    -0.60000
H279        H  0.82812378  0.02202602  0.26055609     0.44000
H280        H  0.95970922  0.49676885  0.24411376     0.44000
C281        C  0.51591479  0.39994900  0.05538362    -0.05100
C282        C  0.50330154  0.39686767  0.07417823    -0.32500
C283        C  0.49639023  0.36553516  0.08161734     0.36700
C284        C  0.50210109  0.33630531  0.07029703    -0.05400
C285        C  0.51299395  0.33935805  0.05049167    -0.32400
C286        C  0.52008836  0.37083815  0.04311936     0.36700
H287        H  0.49956018  0.41884302  0.08369052     0.17000
O288        O  0.48457469  0.36383280  0.10036412    -0.59900
H289        H  0.51714314  0.31727358  0.04130855     0.17000
O290        O  0.53052361  0.37287610  0.02361123    -0.60000
H291        H  0.55578590  0.36797305  0.03250231     0.44000
H292        H  0.45884489  0.36260519  0.09019521     0.44000
C293        C  0.50535369  0.15080279  0.07372055    -0.05100
C294        C  0.50234265  0.12235403  0.08703498    -0.32500
C295        C  0.50867628  0.09045545  0.08015533     0.36700
C296        C  0.51786632  0.08640841  0.05939164    -0.05400
C297        C  0.52042137  0.11479073  0.04587251    -0.32400
C298        C  0.51426392  0.14667441  0.05282786     0.36700
H299        H  0.49575229  0.12482415  0.10327319     0.17000
O300        O  0.50648042  0.06356627  0.09425637    -0.59900
H301        H  0.52761791  0.11235629  0.02994704     0.17000
O302        O  0.51824960  0.17364955  0.03960333    -0.60000
H303        H  0.49481205  0.17753388  0.02477637     0.44000
H304        H  0.52980314  0.06192715  0.10969790     0.44000
C305        C  0.72193000  0.49804647  0.13203714    -0.05100
C306        C  0.71212211  0.98800461  0.10572762    -0.32500
C307        C  0.67698910  0.98806359  0.08640286     0.36700
C308        C  0.65056148  0.49733696  0.09323277    -0.05400
C309        C  0.66013086  0.50662504  0.11948456    -0.32400
C310        C  0.69498003  0.50662567  0.13873445     0.36700
H311        H  0.73122987  0.97876249  0.10006005     0.17000
O312        O  0.66869632  0.97738180  0.06123643    -0.59900
H313        H  0.64037410  0.51354927  0.12538613     0.17000
O314        O  0.70241991  0.51477797  0.16431763    -0.60000
H315        H  0.69200440  0.49680127  0.17050216     0.44000
H316        H  0.67301306  0.99689311  0.05237275     0.44000
C317        C  0.15134011  0.49273595  0.32211013    -0.05100
C318        C  0.14498159  0.02191007  0.33276692    -0.32500
C319        C  0.11814147  0.02272368  0.34038087     0.36700
C320        C  0.09721008  0.49416745  0.33699127    -0.05400
C321        C  0.10487267  0.46468204  0.32747060    -0.32400
C322        C  0.13164691  0.46389564  0.32007804     0.36700
H323        H  0.15933792  0.04449326  0.33360318     0.17000
O324        O  0.11053140  0.05225251  0.34872120    -0.59900
H325        H  0.08923376  0.44243575  0.32482653     0.17000
O326        O  0.13749778  0.43519572  0.30957988    -0.60000
H327        H  0.11985825  0.43506012  0.29070597     0.44000
H328        H  0.12711403  0.05388961  0.36781087     0.44000
C329        C  0.00653253  0.09430536  0.07314426    -0.05100
C330        C  0.01439329  0.09735871  0.05174788    -0.32500
C331        C  0.02193983  0.12863981  0.04440836     0.36700
C332        C  0.02067914  0.15766754  0.05804685    -0.05400
C333        C  0.01126774  0.15467730  0.07862615    -0.32400
C334        C  0.00467839  0.12343733  0.08642190     0.36700
H335        H  0.01588644  0.07533475  0.04124908     0.17000
O336        O  0.03010534  0.13053813  0.02369613    -0.59900
H337        H  0.00993851  0.17660457  0.08929512     0.17000
O338        O  0.99599310  0.12175370  0.10688736    -0.60000
H339        H  0.01838633  0.12367380  0.12323821     0.44000
H340        H  0.05529437  0.12544411  0.03145371     0.44000
C341        C  0.00775347  0.40901694  0.07233223    -0.05100
C342        C  0.02941298  0.40602284  0.05991495    -0.32500
C343        C  0.03705552  0.37471926  0.05285192     0.36700
C344        C  0.02282803  0.34545347  0.05800997    -0.05400
C345        C  0.00059395  0.34850161  0.06990481    -0.32400
C346        C  0.99331186  0.37974895  0.07727318     0.36700
H347        H  0.04118815  0.42801438  0.05618044     0.17000
O348        O  0.05921093  0.37311695  0.04154317    -0.59900
H349        H  0.98923813  0.32648111  0.07402535     0.17000
O350        O  0.97190879  0.38128606  0.08923647    -0.60000
H351        H  0.98713691  0.37650419  0.10818944     0.44000
H352        H  0.04387038  0.37238943  0.52218056     0.44000
C353        C  0.15073640  0.49475545  0.22157056    -0.05100
C354        C  0.12072853  0.47769810  0.21917279    -0.32500
C355        C  0.09000656  0.47720529  0.19527831     0.36700
C356        C  0.08915715  0.49254390  0.17267282    -0.05400
C357        C  0.11994016  0.00641174  0.17420641    -0.32400
C358        C  0.15059890  0.00721997  0.19815527     0.36700
H359        H  0.12098327  0.46347063  0.23537970     0.17000
O360        O  0.06135773  0.46073361  0.19412848    -0.59900
H361        H  0.12038234  0.01676222  0.15671042     0.17000
O362        O  0.18097079  0.01815145  0.19822863    -0.60000
H363        H  0.17581843  0.03995783  0.18905265     0.44000
H364        H  0.04960804  0.47707298  0.20046451     0.44000
C365        C  0.90572069  0.51423930  0.10643993    -0.05100
C366        C  0.90505101  0.03764917  0.12462505    -0.32500
C367        C  0.87822679  0.03717232  0.13210689     0.36700
C368        C  0.85179380  0.51273176  0.12166438    -0.05400
C369        C  0.85037111  0.49175926  0.10136328    -0.32400
C370        C  0.87699111  0.49258378  0.09353163     0.37900
H371        H  0.92634206  0.05526166  0.13414226     0.17000
O372        O  0.87867790  0.05964225  0.15056706    -0.59900
H373        H  0.83031111  0.47271871  0.09330502     0.17000
O374        O  0.87649530  0.46972058  0.07537867    -0.60000
H375        H  0.86417823  0.48089668  0.05799405     0.44000
H376        H  0.89971217  0.05446506  0.16724284     0.44000
C377        C  0.25610988  0.40911627  0.23133889    -0.05100
C378        C  0.24622626  0.40828653  0.20405825    -0.32500
C379        C  0.25379037  0.38069430  0.19247492     0.36700
C380        C  0.27157538  0.35340560  0.20825962    -0.05400
C381        C  0.28147432  0.35434349  0.23553893    -0.32400
C382        C  0.27408246  0.38190812  0.24712158     0.36700
H383        H  0.23259317  0.42918110  0.19171494     0.17000
O384        O  0.24493224  0.38114791  0.16598070    -0.59900
H385        H  0.29441272  0.33327062  0.24792366     0.17000
O386        O  0.28253439  0.38106894  0.27354003    -0.60000
H387        H  0.30811738  0.38443356  0.28296300     0.44000
H388        H  0.21940795  0.37728073  0.15679185     0.44000
C389        C  0.25682344  0.15985099  0.22311822    -0.05100
C390        C  0.22291814  0.15861770  0.22068768    -0.32500
C391        C  0.21300089  0.13341576  0.23309404     0.36700
C392        C  0.23699681  0.10869676  0.24792582    -0.05400
C393        C  0.27084818  0.11004172  0.25029539    -0.32400
C394        C  0.28076476  0.13507512  0.23801239     0.36700
H395        H  0.20424681  0.17749336  0.20942010     0.17000
O396        O  0.17983651  0.13312588  0.23058953    -0.59900
H397        H  0.28942002  0.09075793  0.26085139     0.17000
O398        O  0.31367966  0.13434499  0.24001588    -0.60000
H399        H  0.31120718  0.12277829  0.22378945     0.44000
H400        H  0.18100580  0.14710067  0.24542985     0.44000
C401        C  0.35445343  0.25306370  0.12539014    -0.05100
C402        C  0.35278110  0.23028206  0.10604134    -0.32500
C403        C  0.37838909  0.23052754  0.09717862     0.36700
C404        C  0.40594389  0.25388763  0.10779527    -0.05400
C405        C  0.40535620  0.27869524  0.12506271    -0.32400
C406        C  0.38004983  0.27825334  0.13401330     0.36700
H407        H  0.33336981  0.21056823  0.09956389     0.17000
O408        O  0.37822070  0.20578453  0.08042361    -0.59900
H409        H  0.42585784  0.29736425  0.13296504     0.17000
O410        O  0.38133146  0.30158142  0.15217488    -0.60000
H411        H  0.40200609  0.29589656  0.16893606     0.44000
H412        H  0.36547418  0.21521444  0.06239870     0.44000
C413        C  0.22427471  0.24548956  0.13617635    -0.05100
C414        C  0.19832160  0.25677642  0.14286644    -0.32500
C415        C  0.16328341  0.25841158  0.12416767     0.36700
C416        C  0.15289174  0.24838233  0.09780804    -0.05400
C417        C  0.17808226  0.23520858  0.09123872    -0.32400
C418        C  0.21308998  0.23250488  0.11027755     0.36700
H419        H  0.20523484  0.26432306  0.16300593     0.17000
O420        O  0.13958348  0.27063898  0.13185767    -0.59900
H421        H  0.17034661  0.22557373  0.07147498     0.17000
O422        O  0.23500081  0.21476806  0.10363024    -0.60000
H423        H  0.23419291  0.19166043  0.10957438     0.44000
H424        H  0.13378927  0.25162615  0.14034671     0.44000
C425        C  0.42843053  0.24561393  0.27104708    -0.05100
C426        C  0.41150252  0.21542704  0.25984225    -0.32500
C427        C  0.38007505  0.21489910  0.23627982     0.36700
C428        C  0.36383134  0.24513031  0.22448878    -0.05400
C429        C  0.38371261  0.27464826  0.23355139    -0.32400
C430        C  0.41530361  0.27519755  0.25676111     0.36700
H431        H  0.42262760  0.19205944  0.26937066     0.17000
O432        O  0.36628546  0.18494727  0.22412011    -0.59900
H433        H  0.37519787  0.29754634  0.22255199     0.17000
O434        O  0.43330274  0.30471855  0.26498596    -0.60000
H435        H  0.42207695  0.31673176  0.27434196     0.44000
H436        H  0.36664621  0.16980287  0.23804563     0.44000
C437        C  0.60262585  0.25738457  0.33662765    -0.05100
C438        C  0.60286268  0.28157496  0.31885796    -0.32500
C439        C  0.62896383  0.28184892  0.31062295     0.36700
C440        C  0.65538739  0.25775432  0.32023925    -0.05400
C441        C  0.65684527  0.23542557  0.33972172    -0.32400
C442        C  0.63066447  0.23508557  0.34795981     0.36700
H443        H  0.58185642  0.29935946  0.31036401     0.17000
O444        O  0.62792237  0.30492682  0.29242119    -0.59900
H445        H  0.67664152  0.21636035  0.34681048     0.17000
O446        O  0.63074460  0.21056843  0.36481038    -0.60000
H447        H  0.64441346  0.21995212  0.38283303     0.44000
H448        H  0.60723431  0.29898303  0.27564142     0.44000
C449        C  0.48663701  0.39777424  0.39255297    -0.05100
C450        C  0.52000034  0.38968362  0.39573692    -0.32500
C451        C  0.52760741  0.35725398  0.39053831     0.36700
C452        C  0.50145989  0.33225752  0.38155144    -0.05400
C453        C  0.46841320  0.34025750  0.37903248    -0.32400
C454        C  0.46089947  0.37250115  0.38437251     0.36700
H455        H  0.54022777  0.40862430  0.40209173     0.17000
O456        O  0.56014853  0.35085507  0.39296155    -0.59900
H457        H  0.44779985  0.32168255  0.37202188     0.17000
O458        O  0.42778123  0.37926543  0.38053594    -0.60000
H459        H  0.41519565  0.38694939  0.36194530     0.44000
H460        H  0.57447953  0.34518188  0.41186122     0.44000
C461        C  0.50732763  0.15188124  0.37600415    -0.05100
C462        C  0.49171509  0.14876158  0.39292819    -0.32500
C463        C  0.48361315  0.11737575  0.39967164     0.36700
C464        C  0.49116649  0.08796376  0.38957399    -0.05400
C465        C  0.50792445  0.09101238  0.37338140    -0.32400
C466        C  0.51616916  0.12246005  0.36672336     0.36700
H467        H  0.48488315  0.17082939  0.40051911     0.17000
O468        O  0.46820098  0.11589813  0.41616780    -0.59900
H469        H  0.51434787  0.06891874  0.36554606     0.17000
O470        O  0.53212178  0.12400687  0.35059145    -0.60000
H471        H  0.55743166  0.12439294  0.36278215     0.44000
H472        H  0.44291925  0.11835143  0.40442848     0.44000
C473        C  0.35652924  0.49679547  0.35289403    -0.05100
C474        C  0.33137551  0.48041486  0.35812775    -0.32500
C475        C  0.29578930  0.48010938  0.33941625     0.36700
C476        C  0.28460728  0.49764456  0.31524926    -0.05400
C477        C  0.31052157  0.01229619  0.30983604    -0.32400
C478        C  0.34560654  0.01270705  0.32836097     0.36700
H479        H  0.33950614  0.46657038  0.37635205     0.17000
O480        O  0.27328458  0.45955515  0.34367226    -0.59900
H481        H  0.30365674  0.02318725  0.29065500     0.17000
O482        O  0.36910235  0.02855897  0.32201575    -0.60000
H483        H  0.36851267  0.05231202  0.32665668     0.44000
H484        H  0.27520463  0.46594143  0.36122021     0.44000
In485      In  0.46234305  0.99436817  0.90597501     1.36900
C486        C  0.47855930  0.43239400  0.89739026     0.78000
O487        O  0.51026721  0.99361325  0.94522221    -0.60500
O488        O  0.46128101  0.49719983  0.94545513    -0.51400
C489        C  0.48120440  0.05435235  0.89539369     0.70600
O490        O  0.48761080  0.02740954  0.88688120    -0.46200
C491        C  0.39415263  0.49583390  0.87218638     0.75300
O492        O  0.49545018  0.45781020  0.89649979    -0.58100
O493        O  0.40520337  0.49169660  0.89679265    -0.48200
O494        O  0.45376839  0.43893085  0.90258219    -0.54500
C495        C  0.49395658  0.49558987  0.95882155     0.85500
O496        O  0.46523373  0.05028148  0.90913940    -0.56400
O497        O  0.41796439  0.99912640  0.86520205    -0.59700
In498      In  0.51337423  0.24565990  0.84609764     1.36900
C499        C  0.45918923  0.24568857  0.79750269     0.78000
O500        O  0.52183736  0.19005908  0.84935539    -0.60500
O501        O  0.50412025  0.21236888  0.87475528    -0.51400
C502        C  0.57129980  0.25360238  0.84071386     0.70600
O503        O  0.54142633  0.26054242  0.82283195    -0.46200
C504        C  0.50662994  0.29937922  0.87162997     0.75300
O505        O  0.47636068  0.27154299  0.80854123    -0.58100
O506        O  0.48162985  0.28008254  0.85798268    -0.48200
O507        O  0.46993809  0.21982718  0.81131211    -0.54500
C508        C  0.51175305  0.18564001  0.86680445     0.85500
O509        O  0.57177813  0.24256015  0.86170982    -0.56400
O510        O  0.53573029  0.28925446  0.87441884    -0.59700
C511        C  0.32705351  0.24574955  0.70108512     0.30400
C512        C  0.26229713  0.24594683  0.65806704     0.30400
C513        C  0.30772336  0.27918405  0.69481860    -0.05800
C514        C  0.32593329  0.23600722  0.67461260    -0.06600
C515        C  0.29990847  0.22250043  0.70266867    -0.06500
C516        C  0.27494719  0.27955600  0.67282045    -0.05800
C517        C  0.29310458  0.23710721  0.65205463    -0.06600
C518        C  0.26744505  0.22184533  0.68075610    -0.06500
C519        C  0.25887794  0.30857878  0.67446233    -0.31900
N520        N  0.28025379  0.32489574  0.69709548     0.14600
C521        C  0.30947559  0.30669798  0.70986342    -0.31900
H522        H  0.32936656  0.31192637  0.72972970     0.16600
C523        C  0.30062939  0.24544636  0.63127768    -0.30800
N524        N  0.33560086  0.24622864  0.64018996     0.13400
C525        C  0.35102618  0.24114971  0.66651113    -0.30800
C526        C  0.24742258  0.19881052  0.68603006    -0.31100
N527        N  0.26693597  0.18601734  0.71057394     0.13900
H528        H  0.22089604  0.19151734  0.67285302     0.16500
C529        C  0.29857440  0.20120180  0.72110125    -0.31100
H530        H  0.31901664  0.19725266  0.74093023     0.16500
H531        H  0.37865078  0.24401248  0.67933002     0.16500
H532        H  0.23235933  0.31570999  0.66161217     0.16600
H533        H  0.28233223  0.25367643  0.61174718     0.16500
In534      In  0.99859509  0.50137908  0.60228043     1.36900
C535        C  0.05678682  0.49464903  0.64744955     0.78000
O536        O  0.98917753  0.44603095  0.59712567    -0.60500
O537        O  0.01191559  0.46932148  0.57522105    -0.51400
C538        C  0.93825265  0.51016762  0.60395435     0.70600
O539        O  0.96748147  0.01748579  0.62273325    -0.46200
C540        C  0.00264956  0.06087572  0.58268791     0.75300
O541        O  0.02751445  0.48476160  0.64467880    -0.58100
O542        O  0.99498414  0.03467632  0.56867332    -0.48200
O543        O  0.05613051  0.00745155  0.62695143    -0.54500
C544        C  0.00240591  0.44232716  0.58150429     0.85500
O545        O  0.93961304  0.49822674  0.58380208    -0.56400
O546        O  0.00774899  0.05623912  0.60611419    -0.59700
C547        C  0.18404228  0.49659132  0.74796030     0.30400
C548        C  0.24699426  0.49769747  0.79277874     0.30400
C549        C  0.20226448  0.03074342  0.75586111    -0.05800
C550        C  0.18289157  0.48637632  0.77377635    -0.06600
C551        C  0.21216996  0.47413496  0.74780460    -0.06500
C552        C  0.23424477  0.03133787  0.77850113    -0.05800
C553        C  0.21520561  0.48707683  0.79717200    -0.06600
C554        C  0.24380680  0.47453158  0.77022970    -0.06500
C555        C  0.24843694  0.06253352  0.77979466    -0.31900
N556        N  0.22663128  0.08040582  0.75837407     0.14600
C557        C  0.19782027  0.06156804  0.74421089    -0.31900
H558        H  0.17682043  0.06863616  0.72537975     0.16600
C559        C  0.20678646  0.49292687  0.81783687    -0.30800
N560        N  0.17172602  0.49369887  0.80800939     0.13400
C561        C  0.15735252  0.49173913  0.78148619    -0.30800
C562        C  0.26439347  0.45109961  0.76644819    -0.31100
N563        N  0.24567342  0.43654053  0.74235659     0.13900
H564        H  0.29076903  0.44479106  0.78038352     0.16500
C565        C  0.21374511  0.45061499  0.73081199    -0.31100
H566        H  0.19270369  0.44321824  0.71192332     0.16500
H567        H  0.13008970  0.49636890  0.76880548     0.16500
H568        H  0.27410580  0.07079723  0.79402142     0.16600
H569        H  0.22462838  0.49829848  0.83825063     0.16500
In570      In  0.04847072  0.25111358  0.54215117     1.36900
C571        C  0.03001073  0.19101059  0.55181317     0.78000
O572        O  0.99983896  0.25139668  0.00341586    -0.60500
O573        O  0.04843578  0.25132808  0.00223542    -0.51400
C574        C  0.03152079  0.31175262  0.55184760     0.70600
O575        O  0.01836956  0.28531644  0.55564325    -0.46200
C576        C  0.11578448  0.24975035  0.57760124     0.75300
O577        O  0.02180061  0.21775096  0.55927232    -0.58100
O578        O  0.10596737  0.24852735  0.55292234    -0.48200
O579        O  0.04744679  0.19514562  0.53918821    -0.54500
C580        C  0.01559379  0.25112958  0.98935074     0.85500
O581        O  0.05300296  0.30696196  0.54275641    -0.56400
O582        O  0.09120385  0.25189301  0.58375473    -0.59700
In583      In  0.54429398  0.99418953  0.54071613     1.36900
C584        C  0.52549787  0.43348230  0.54958464     0.78000
O585        O  0.49563228  0.99502900  0.00170774    -0.60500
O586        O  0.54455523  0.49566966  0.00107871    -0.51400
C587        C  0.52633724  0.05327317  0.55228471     0.70600
O588        O  0.52032854  0.02615975  0.56076315    -0.46200
C589        C  0.61287594  0.49625193  0.57400078     0.75300
O590        O  0.51442555  0.46007006  0.55486547    -0.58100
O591        O  0.60132252  0.49392770  0.54921928    -0.48200
O592        O  0.54604617  0.43800690  0.53960767    -0.54500
C593        C  0.51179543  0.49556598  0.98791680     0.85500
O594        O  0.54081794  0.04991499  0.53744237    -0.56400
O595        O  0.58938305  0.99751034  0.58137535    -0.59700
In596      In  0.00682366  0.49744626  0.84520080     1.36900
C597        C  0.95060338  0.99470622  0.79815865     0.78000
O598        O  0.02938501  0.44846084  0.86487207    -0.60500
O599        O  0.98237460  0.46384415  0.86428421    -0.51400
C600        C  0.06556677  0.49516285  0.84088459     0.70600
O601        O  0.03982217  0.97621361  0.82806491    -0.46200
C602        C  0.00523965  0.05699724  0.86577584     0.75300
O603        O  0.98091609  0.49785463  0.80049753    -0.58100
O604        O  0.01176934  0.03058337  0.87924305    -0.48200
O605        O  0.94921708  0.99318203  0.81981707    -0.54500
C606        C  0.00475875  0.44126001  0.87013604     0.85500
O607        O  0.06163855  0.51499695  0.85666036    -0.56400
O608        O  0.00071683  0.05274876  0.84240789    -0.59700
C609        C  0.82417094  0.49354687  0.69718745     0.30400
C610        C  0.75992116  0.49698408  0.65384771     0.30400
C611        C  0.80561466  0.02700586  0.69244316    -0.05800
C612        C  0.82410426  0.48764138  0.67023316    -0.06600
C613        C  0.79687418  0.46881796  0.69622865    -0.06500
C614        C  0.77301650  0.02901593  0.67069088    -0.05800
C615        C  0.79094454  0.48945063  0.64749039    -0.06600
C616        C  0.76447479  0.47034681  0.67458471    -0.06500
C617        C  0.75978199  0.05979579  0.67216572    -0.31900
N618        N  0.78326020  0.07572037  0.69434808     0.14600
C619        C  0.81172334  0.05629272  0.70629651    -0.31900
H620        H  0.83440838  0.06229493  0.72464564     0.16600
C621        C  0.79790897  0.50007463  0.62689093    -0.30800
N622        N  0.83274871  0.50371603  0.63601725     0.13400
C623        C  0.84835899  0.49759387  0.66216847    -0.30800
C624        C  0.74364222  0.44728180  0.67881022    -0.31100
N625        N  0.76274692  0.43278933  0.70268039     0.13900
H626        H  0.71644179  0.44205341  0.66594509     0.16500
C627        C  0.79549280  0.44519997  0.71313304    -0.31100
H628        H  0.81665901  0.43774325  0.73180696     0.16500
H629        H  0.87540031  0.50334003  0.67471936     0.16500
H630        H  0.73400777  0.06890809  0.65928927     0.16600
H631        H  0.77910892  0.50797138  0.60742469     0.16500
In632      In  0.49777662  0.24420465  0.60205549     1.36900
C633        C  0.55779122  0.24105031  0.64620724     0.78000
O634        O  0.49516208  0.18845161  0.60252586    -0.60500
O635        O  0.50362750  0.21118072  0.57218180    -0.51400
C636        C  0.43782451  0.25054061  0.60443809     0.70600
O637        O  0.46659230  0.26145678  0.62174042    -0.46200
C638        C  0.49925373  0.30302543  0.58056058     0.75300
O639        O  0.52914128  0.23194717  0.64509209    -0.58100
O640        O  0.49569627  0.27596139  0.56809144    -0.48200
O641        O  0.55572273  0.25128137  0.62453948    -0.54500
C642        C  0.50096265  0.18436498  0.58281985     0.85500
O643        O  0.43927899  0.23612301  0.58514530    -0.56400
O644        O  0.50139045  0.29950899  0.60329420    -0.59700
C645        C  0.68572027  0.24414032  0.74615087     0.30400
C646        C  0.74944942  0.24808298  0.78999920     0.30400
C647        C  0.70328550  0.27852466  0.75248819    -0.05800
C648        C  0.68546427  0.23599392  0.77253580    -0.06600
C649        C  0.71386304  0.22172076  0.74616657    -0.06500
C650        C  0.73602649  0.28062190  0.77426625    -0.05800
C651        C  0.71819035  0.23836147  0.79561349    -0.06600
C652        C  0.74583548  0.22303578  0.76829960    -0.06500
C653        C  0.74913059  0.31184419  0.77343906    -0.31900
N654        N  0.72522246  0.32810294  0.75188074     0.14600
C655        C  0.69651464  0.30863630  0.74000185    -0.31900
H656        H  0.67353568  0.31515159  0.72213310     0.16600
C657        C  0.71004580  0.24842650  0.81577221    -0.30800
N658        N  0.67507609  0.25078862  0.80608889     0.13400
C659        C  0.66035555  0.24465372  0.77994228    -0.30800
C660        C  0.76693934  0.20066640  0.76395965    -0.31100
N661        N  0.74848596  0.18675888  0.73958091     0.13900
H662        H  0.79368953  0.19490167  0.77744594     0.16500
C663        C  0.71592148  0.19935305  0.72865126    -0.31100
H664        H  0.69498201  0.19202778  0.70970377     0.16500
H665        H  0.63325361  0.24916142  0.76670882     0.16500
H666        H  0.77516723  0.32093534  0.78602664     0.16600
H667        H  0.72805813  0.25693278  0.83537366     0.16500
In668      In  0.96325148  0.24788792  0.90755648     1.36900
C669        C  0.98180723  0.18821783  0.89712218     0.78000
O670        O  0.01248814  0.24935526  0.94604962    -0.60500
O671        O  0.96406756  0.24984737  0.94755838    -0.51400
C672        C  0.98082572  0.30884422  0.89912807     0.70600
O673        O  0.99226251  0.28275519  0.89334529    -0.46200
C674        C  0.89510861  0.24792711  0.87294606     0.75300
O675        O  0.98833714  0.21518358  0.88875909    -0.58100
O676        O  0.90574538  0.24194075  0.89728813    -0.48200
O677        O  0.96620320  0.19194787  0.91113397    -0.54500
C678        C  0.99692947  0.25020622  0.96026454     0.85500
O679        O  0.96067111  0.30347328  0.90937843    -0.56400
O680        O  0.91929283  0.25337135  0.86674628    -0.59700
C681        C  0.78705565  0.24945027  0.81255815    -0.05100
C682        C  0.79562584  0.23947268  0.83866148    -0.32500
C683        C  0.83027514  0.23994804  0.85876475     0.36700
C684        C  0.85771571  0.24875558  0.85287505    -0.05400
C685        C  0.84942216  0.25790553  0.82681069    -0.32400
C686        C  0.81485553  0.25857981  0.80693184     0.36700
H687        H  0.77596644  0.23000580  0.84369036     0.17000
O688        O  0.83699740  0.23056340  0.88387624    -0.59900
H689        H  0.86995397  0.26436437  0.82156161     0.17000
O690        O  0.80865103  0.26588731  0.78148103    -0.60000
H691        H  0.81885143  0.28832646  0.78220316     0.44000
H692        H  0.83361086  0.25099726  0.89227593     0.44000
C693        C  0.65206188  0.24143308  0.72006250    -0.05100
C694        C  0.65122125  0.25633883  0.69725898    -0.32500
C695        C  0.62084617  0.25679907  0.67327577     0.36700
C696        C  0.59079947  0.24015623  0.67099157    -0.05400
C697        C  0.59254480  0.22200470  0.69270197    -0.32400
C698        C  0.62305054  0.22178337  0.71689829     0.36700
H699        H  0.67433409  0.26804080  0.69801256     0.17000
O700        O  0.62098376  0.27359508  0.65225146    -0.59900
H701        H  0.57038006  0.20721768  0.69075978     0.17000
O702        O  0.62551039  0.19958992  0.73608955    -0.60000
H703        H  0.60483060  0.20323579  0.73911165     0.44000
H704        H  0.61473656  0.29685306  0.65414500     0.44000
C705        C  0.73259432  0.35576316  0.73919057    -0.05100
C706        C  0.75042294  0.38372926  0.75403101    -0.32500
C707        C  0.75975749  0.40977608  0.74206159     0.36700
C708        C  0.75093039  0.40797976  0.71488298    -0.05400
C709        C  0.73238695  0.38048582  0.69996698    -0.32400
C710        C  0.72375100  0.35423315  0.71192603     0.36700
H711        H  0.75730792  0.38516445  0.77491607     0.17000
O712        O  0.77665194  0.43727413  0.75679578    -0.59900
H713        H  0.72610686  0.37868188  0.67920531     0.17000
O714        O  0.70815667  0.32650338  0.69698406    -0.60000
H715        H  0.72741879  0.31080944  0.70045386     0.44000
H716        H  0.80073592  0.42989073  0.76846127     0.44000
C717        C  0.77648576  0.10474360  0.70607293    -0.05100
C718        C  0.76074917  0.13264088  0.69047770    -0.32500
C719        C  0.75231667  0.16034390  0.70146503     0.36700
C720        C  0.75978809  0.16028156  0.72839680    -0.05400
C721        C  0.77608955  0.13271667  0.74402255    -0.32400
C722        C  0.78426165  0.10504069  0.73309451     0.36700
H723        H  0.75488348  0.13280304  0.66976038     0.17000
O724        O  0.73761382  0.18769031  0.68601922    -0.59900
H725        H  0.78113453  0.13208696  0.76456341     0.17000
O726        O  0.79743212  0.07743541  0.74852766    -0.60000
H727        H  0.82174244  0.08344887  0.76111151     0.44000
H728        H  0.71328917  0.18100353  0.67395981     0.44000
C729        C  0.00232533  0.09036408  0.87583842    -0.05100
C730        C  0.00599087  0.11879731  0.86287522    -0.32500
C731        C  0.00057148  0.15075050  0.87015800     0.36700
C732        C  0.99078578  0.15489344  0.89059160    -0.05400
C733        C  0.98791859  0.12647798  0.90402829    -0.32400
C734        C  0.99355324  0.09444261  0.89679732     0.36700
H735        H  0.01260796  0.11625372  0.84665333     0.17000
O736        O  0.00318879  0.17756423  0.85618073    -0.59900
H737        H  0.98052683  0.12899785  0.91984583     0.17000
O738        O  0.98908989  0.06732161  0.90967655    -0.60000
H739        H  0.96394722  0.06167074  0.89998580     0.44000
H740        H  0.02805628  0.18436926  0.86530652     0.44000
C741        C  0.00136342  0.40828727  0.88058080    -0.05100
C742        C  0.02044893  0.38121528  0.87840063    -0.32500
C743        C  0.01484901  0.34889717  0.88508247     0.36700
C744        C  0.98950155  0.34302165  0.89389545    -0.05400
C745        C  0.97152775  0.37033449  0.89718418    -0.32400
C746        C  0.97742364  0.40269873  0.89078551     0.36700
H747        H  0.03914852  0.38490334  0.87075273     0.17000
O748        O  0.03385159  0.32321776  0.88237889    -0.59900
H749        H  0.95231712  0.36658719  0.90432811     0.17000
O750        O  0.95920593  0.42856419  0.89421998    -0.60000
H751        H  0.97392379  0.43676809  0.91249002     0.44000
H752        H  0.05501207  0.32200545  0.89965161     0.44000
C753        C  0.85763534  0.49183141  0.72350941    -0.05100
C754        C  0.88985574  0.48227838  0.72501299    -0.32500
C755        C  0.92054636  0.48431857  0.74889226     0.36700
C756        C  0.91913008  0.49313858  0.77241170    -0.05400
C757        C  0.88678108  0.99938412  0.77158137    -0.32400
C758        C  0.85627296  0.99904298  0.74755773     0.36700
H759        H  0.89169158  0.47204793  0.70815190     0.17000
O760        O  0.95155329  0.47608034  0.74917604    -0.59900
H761        H  0.88506850  0.00493618  0.78967731     0.17000
O762        O  0.82475163  0.00392240  0.74771242    -0.60000
H763        H  0.82812392  0.02202625  0.76055614     0.44000
H764        H  0.95970932  0.49676855  0.74411395     0.44000
C765        C  0.51591493  0.39994899  0.55538375    -0.05100
C766        C  0.50330186  0.39686767  0.57417845    -0.32500
C767        C  0.49639054  0.36553516  0.58161754     0.36700
C768        C  0.50210118  0.33630531  0.57029712    -0.05400
C769        C  0.51299382  0.33935805  0.55049164    -0.32400
C770        C  0.52008828  0.37083815  0.54311936     0.36700
H771        H  0.49956060  0.41884303  0.58369079     0.17000
O772        O  0.48457510  0.36383280  0.60036438    -0.59900
H773        H  0.51714280  0.31727356  0.54130842     0.17000
O774        O  0.53052331  0.37287611  0.52361111    -0.60000
H775        H  0.55578560  0.36797305  0.53250209     0.44000
H776        H  0.45884526  0.36260520  0.59019547     0.44000
C777        C  0.50535347  0.15080277  0.57372051    -0.05100
C778        C  0.50234222  0.12235399  0.58703486    -0.32500
C779        C  0.50867590  0.09045539  0.58015525     0.36700
C780        C  0.51786614  0.08640840  0.55939165    -0.05400
C781        C  0.52042125  0.11479072  0.54587254    -0.32400
C782        C  0.51426375  0.14667438  0.55282786     0.36700
H783        H  0.49575162  0.12482409  0.60327294     0.17000
O784        O  0.50647971  0.06356616  0.59425612    -0.59900
H785        H  0.52761783  0.11235628  0.52994710     0.17000
O786        O  0.51824933  0.17364950  0.53960325    -0.60000
H787        H  0.49481177  0.17753382  0.52477637     0.44000
H788        H  0.52980233  0.06192692  0.60969780     0.44000
C789        C  0.72193020  0.49804663  0.63203729    -0.05100
C790        C  0.71212208  0.98800474  0.60572770    -0.32500
C791        C  0.67698903  0.98806368  0.58640298     0.36700
C792        C  0.65056172  0.49733700  0.59323291    -0.05400
C793        C  0.66013106  0.50662506  0.61948469    -0.32400
C794        C  0.69498023  0.50662583  0.63873460     0.36700
H795        H  0.73122979  0.97876274  0.60006004     0.17000
O796        O  0.66869617  0.97738204  0.56123651    -0.59900
H797        H  0.64037426  0.51354917  0.62538625     0.17000
O798        O  0.70242007  0.51477819  0.66431776    -0.60000
H799        H  0.69200457  0.49680150  0.67050231     0.44000
H800        H  0.67301314  0.99689335  0.55237294     0.44000
C801        C  0.15134009  0.49273567  0.82211002    -0.05100
C802        C  0.14498150  0.02191015  0.83276680    -0.32500
C803        C  0.11814135  0.02272369  0.84038072     0.36700
C804        C  0.09721000  0.49416718  0.83699114    -0.05400
C805        C  0.10487247  0.46468183  0.82747031    -0.32400
C806        C  0.13164676  0.46389543  0.82007781     0.36700
H807        H  0.15933782  0.04449337  0.83360309     0.17000
O808        O  0.11053119  0.05225249  0.84872103    -0.59900
H809        H  0.08923347  0.44243557  0.82482610     0.17000
O810        O  0.13749744  0.43519559  0.80957948    -0.60000
H811        H  0.11985815  0.43506046  0.79070548     0.44000
H812        H  0.12711391  0.05388969  0.86781068     0.44000
C813        C  0.00653241  0.09430533  0.57314406    -0.05100
C814        C  0.01439347  0.09735865  0.55174783    -0.32500
C815        C  0.02193996  0.12863974  0.54440830     0.36700
C816        C  0.02067915  0.15766750  0.55804672    -0.05400
C817        C  0.01126761  0.15467728  0.57862594    -0.32400
C818        C  0.00467809  0.12343731  0.58642160     0.36700
H819        H  0.01588688  0.07533467  0.54124915     0.17000
O820        O  0.03010550  0.13053801  0.52369608    -0.59900
H821        H  0.00993843  0.17660454  0.58929495     0.17000
O822        O  0.99599268  0.12175369  0.60688699    -0.60000
H823        H  0.01838582  0.12367403  0.62323784     0.44000
H824        H  0.05529455  0.12544411  0.53145370     0.44000
C825        C  0.00775349  0.40901693  0.57233220    -0.05100
C826        C  0.02941264  0.40602284  0.55991463    -0.32500
C827        C  0.03705513  0.37471924  0.55285159     0.36700
C828        C  0.02282793  0.34545344  0.55800991    -0.05400
C829        C  0.00059420  0.34850157  0.56990505    -0.32400
C830        C  0.99331219  0.37974893  0.57727343     0.36700
H831        H  0.04118754  0.42801439  0.55617984     0.17000
O832        O  0.05921023  0.37311693  0.54154257    -0.59900
H833        H  0.98923856  0.32648106  0.57402576     0.17000
O834        O  0.97190934  0.38128605  0.58923691    -0.60000
H835        H  0.98713763  0.37650421  0.60818986     0.44000
H836        H  0.04387134  0.37238991  0.02218112     0.44000
C837        C  0.15073639  0.49475555  0.72157045    -0.05100
C838        C  0.12072858  0.47769811  0.71917269    -0.32500
C839        C  0.09000657  0.47720533  0.69527825     0.36700
C840        C  0.08915708  0.49254405  0.67267277    -0.05400
C841        C  0.11994021  0.00641202  0.67420640    -0.32400
C842        C  0.15059898  0.00722020  0.69815524     0.36700
H843        H  0.12098337  0.46347058  0.73537960     0.17000
O844        O  0.06135778  0.46073362  0.69412848    -0.59900
H845        H  0.12038237  0.01676247  0.65671040     0.17000
O846        O  0.18097087  0.01815162  0.69822854    -0.60000
H847        H  0.17581855  0.03995802  0.68905263     0.44000
H848        H  0.04960812  0.47707292  0.70046455     0.44000
C849        C  0.90572075  0.51423946  0.60643997    -0.05100
C850        C  0.90505105  0.03764916  0.62462513    -0.32500
C851        C  0.87822682  0.03717231  0.63210695     0.36700
C852        C  0.85179403  0.51273195  0.62166462    -0.05400
C853        C  0.85037117  0.49175956  0.60136340    -0.32400
C854        C  0.87699109  0.49258404  0.59353167     0.37900
H855        H  0.92634207  0.05526171  0.63414229     0.17000
O856        O  0.87867794  0.05964226  0.65056711    -0.59900
H857        H  0.83031110  0.47271908  0.59330510     0.17000
O858        O  0.87649516  0.46972082  0.57537868    -0.60000
H859        H  0.86417785  0.48089685  0.55799404     0.44000
H860        H  0.89971211  0.05446497  0.66724289     0.44000
C861        C  0.25610992  0.40911651  0.73133864    -0.05100
C862        C  0.24622643  0.40828679  0.70405802    -0.32500
C863        C  0.25379058  0.38069454  0.69247473     0.36700
C864        C  0.27157551  0.35340583  0.70825944    -0.05400
C865        C  0.28147430  0.35434368  0.73553872    -0.32400
C866        C  0.27408237  0.38190829  0.74712135     0.36700
H867        H  0.23259344  0.42918138  0.69171470     0.17000
O868        O  0.24493265  0.38114816  0.66598053    -0.59900
H869        H  0.29441263  0.33327077  0.74792344     0.17000
O870        O  0.28253405  0.38106903  0.77353975    -0.60000
H871        H  0.30811709  0.38443354  0.78296287     0.44000
H872        H  0.21940831  0.37728119  0.65679159     0.44000
C873        C  0.25682354  0.15985108  0.72311821    -0.05100
C874        C  0.22291831  0.15861788  0.72068781    -0.32500
C875        C  0.21300112  0.13341596  0.73309422     0.36700
C876        C  0.23699699  0.10869681  0.74792580    -0.05400
C877        C  0.27084829  0.11004167  0.75029519    -0.32400
C878        C  0.28076484  0.13507512  0.73801222     0.36700
H879        H  0.20424701  0.17749361  0.70942034     0.17000
O880        O  0.17983686  0.13312628  0.73058999    -0.59900
H881        H  0.28942008  0.09075779  0.76085109     0.17000
O882        O  0.31367964  0.13434496  0.74001553    -0.60000
H883        H  0.31120703  0.12277807  0.72378913     0.44000
H884        H  0.18100636  0.14710128  0.74543022     0.44000
C885        C  0.35445333  0.25306370  0.62538999    -0.05100
C886        C  0.35278113  0.23028188  0.60604134    -0.32500
C887        C  0.37838914  0.23052732  0.59717864     0.36700
C888        C  0.40594379  0.25388762  0.60779513    -0.05400
C889        C  0.40535594  0.27869539  0.62506239    -0.32400
C890        C  0.38004955  0.27825349  0.63401297     0.36700
H891        H  0.33336993  0.21056797  0.59956401     0.17000
O892        O  0.37822094  0.20578409  0.58042385    -0.59900
H893        H  0.42585746  0.29736454  0.63296458     0.17000
O894        O  0.38133098  0.30158174  0.65217435    -0.60000
H895        H  0.40200558  0.29589700  0.66893558     0.44000
H896        H  0.36547419  0.21521365  0.56239883     0.44000
C897        C  0.22427468  0.24548957  0.63617633    -0.05100
C898        C  0.19832160  0.25677640  0.64286644    -0.32500
C899        C  0.16328340  0.25841158  0.62416769     0.36700
C900        C  0.15289174  0.24838251  0.59780802    -0.05400
C901        C  0.17808225  0.23520886  0.59123866    -0.32400
C902        C  0.21308993  0.23250501  0.61027748     0.36700
H903        H  0.20523487  0.26432299  0.66300595     0.17000
O904        O  0.13958342  0.27063873  0.63185773    -0.59900
H905        H  0.17034659  0.22557416  0.57147488     0.17000
O906        O  0.23500069  0.21476822  0.60363008    -0.60000
H907        H  0.23419284  0.19166059  0.60957424     0.44000
H908        H  0.13378920  0.25162578  0.64034660     0.44000
C909        C  0.42843039  0.24561411  0.77104705    -0.05100
C910        C  0.41150234  0.21542723  0.75984228    -0.32500
C911        C  0.38007493  0.21489929  0.73627981     0.36700
C912        C  0.36383129  0.24513048  0.72448871    -0.05400
C913        C  0.38371260  0.27464838  0.73355125    -0.32400
C914        C  0.41530357  0.27519768  0.75676097     0.36700
H915        H  0.42262738  0.19205963  0.76937073     0.17000
O916        O  0.36628529  0.18494747  0.72412011    -0.59900
H917        H  0.37519794  0.29754643  0.72255178     0.17000
O918        O  0.43330274  0.30471865  0.76498571    -0.60000
H919        H  0.42207704  0.31673187  0.77434179     0.44000
H920        H  0.36664630  0.16980301  0.73804570     0.44000
C921        C  0.60262567  0.25738459  0.83662753    -0.05100
C922        C  0.60286245  0.28157494  0.81885779    -0.32500
C923        C  0.62896365  0.28184897  0.81062284     0.36700
C924        C  0.65538733  0.25775449  0.82023924    -0.05400
C925        C  0.65684522  0.23542576  0.83972173    -0.32400
C926        C  0.63066437  0.23508569  0.84795977     0.36700
H927        H  0.58185614  0.29935939  0.81036379     0.17000
O928        O  0.62792211  0.30492683  0.79242103    -0.59900
H929        H  0.67664154  0.21636061  0.84681058     0.17000
O930        O  0.63074460  0.21056864  0.86481044    -0.60000
H931        H  0.64441372  0.21995232  0.88283307     0.44000
H932        H  0.60723416  0.29898296  0.77564130     0.44000
C933        C  0.48663698  0.39777439  0.89255296    -0.05100
C934        C  0.52000036  0.38968373  0.89573701    -0.32500
C935        C  0.52760741  0.35725409  0.89053840     0.36700
C936        C  0.50145979  0.33225773  0.88155136    -0.05400
C937        C  0.46841306  0.34025775  0.87903231    -0.32400
C938        C  0.46089935  0.37250139  0.88437238     0.36700
H939        H  0.54022781  0.40862438  0.90209186     0.17000
O940        O  0.56014852  0.35085513  0.89296162    -0.59900
H941        H  0.44779966  0.32168285  0.87202163     0.17000
O942        O  0.42778109  0.37926570  0.88053580    -0.60000
H943        H  0.41519555  0.38694987  0.86194520     0.44000
H944        H  0.57447953  0.34518157  0.91186122     0.44000
C945        C  0.50732742  0.15188145  0.87600417    -0.05100
C946        C  0.49171541  0.14876176  0.89292856    -0.32500
C947        C  0.48361354  0.11737590  0.89967205     0.36700
C948        C  0.49116647  0.08796396  0.88957409    -0.05400
C949        C  0.50792395  0.09101261  0.87338118    -0.32400
C950        C  0.51616852  0.12246028  0.86672305     0.36700
H951        H  0.48488381  0.17082954  0.90051976     0.17000
O952        O  0.46820198  0.11589819  0.91616861    -0.59900
H953        H  0.51434704  0.06891899  0.86554560     0.17000
O954        O  0.53212048  0.12400712  0.85059069    -0.60000
H955        H  0.55743052  0.12439316  0.86278111     0.44000
H956        H  0.44292016  0.11835166  0.90442962     0.44000
C957        C  0.35652932  0.49679542  0.85289375    -0.05100
C958        C  0.33137561  0.48041492  0.85812756    -0.32500
C959        C  0.29578939  0.48010944  0.83941610     0.36700
C960        C  0.28460732  0.49764452  0.81524907    -0.05400
C961        C  0.31052170  0.01229632  0.80983596    -0.32400
C962        C  0.34560669  0.01270723  0.82836089     0.36700
H963        H  0.33950624  0.46657059  0.87635192     0.17000
O964        O  0.27328467  0.45955539  0.84367228    -0.59900
H965        H  0.30365686  0.02318740  0.79065492     0.17000
O966        O  0.36910249  0.02855916  0.82201563    -0.60000
H967        H  0.36851278  0.05231225  0.82665647     0.44000
H968        H  0.27520494  0.46594170  0.86122027     0.44000
In969      In  0.46234289  0.49436805  0.40597506     1.36900
C970        C  0.47855940  0.93239393  0.39739033     0.78000
O971        O  0.51026700  0.49361329  0.44522230    -0.60500
O972        O  0.46128113  0.99719965  0.44545533    -0.51400
C973        C  0.48120414  0.55435218  0.39539351     0.70600
O974        O  0.48761064  0.52740932  0.38688115    -0.46200
C975        C  0.39415259  0.99583380  0.37218658     0.75300
O976        O  0.49544998  0.95781022  0.39649960    -0.58100
O977        O  0.40520336  0.99169640  0.39679284    -0.48200
O978        O  0.45376872  0.93893067  0.40258256    -0.54500
C979        C  0.49395672  0.99558982  0.45882169     0.85500
O980        O  0.46523342  0.55028139  0.40913919    -0.56400
O981        O  0.41796420  0.49912642  0.36520216    -0.59700
In982      In  0.51337433  0.74565979  0.34609767     1.36900
C983        C  0.45918938  0.74568842  0.29750266     0.78000
O984        O  0.52183814  0.69005900  0.34935575    -0.60500
O985        O  0.50411981  0.71236864  0.37475496    -0.51400
C986        C  0.57129988  0.75360241  0.34071391     0.70600
O987        O  0.54142639  0.76054244  0.32283203    -0.46200
C988        C  0.50663016  0.79937917  0.37163005     0.75300
O989        O  0.47636055  0.77154291  0.30854135    -0.58100
O990        O  0.48163005  0.78008247  0.35798284    -0.48200
O991        O  0.46993852  0.71982695  0.31131192    -0.54500
C992        C  0.51175317  0.68563983  0.36680443     0.85500
O993        O  0.57177826  0.74256017  0.36170989    -0.56400
O994        O  0.53573047  0.78925441  0.37441883    -0.59700
C995        C  0.32705348  0.74574946  0.20108517     0.30400
C996        C  0.26229713  0.74594675  0.15806703     0.30400
C997        C  0.30772329  0.77918394  0.19481867    -0.05800
C998        C  0.32593331  0.73600719  0.17461265    -0.06600
C999        C  0.29990843  0.72250027  0.20266865    -0.06500
C1000       C  0.27494715  0.77955589  0.17282049    -0.05800
C1001       C  0.29310462  0.73710722  0.15205464    -0.06600
C1002       C  0.26744502  0.72184517  0.18075605    -0.06500
C1003       C  0.25887788  0.80857868  0.17446231    -0.31900
N1004       N  0.28025364  0.82489562  0.19709549     0.14600
C1005       C  0.30947548  0.80669790  0.20986346    -0.31900
H1006       H  0.32936642  0.81192633  0.22972975     0.16600
C1007       C  0.30062949  0.74544644  0.13127773    -0.30800
N1008       N  0.33560098  0.74622871  0.14019008     0.13400
C1009       C  0.35102626  0.74114966  0.16651124    -0.30800
C1010       C  0.24742254  0.69881037  0.18603001    -0.31100
N1011       N  0.26693588  0.68601721  0.21057391     0.13900
H1012       H  0.22089598  0.69151725  0.17285298     0.16500
C1013       C  0.29857433  0.70120165  0.22110121    -0.31100
H1014       H  0.31901656  0.69725258  0.24093021     0.16500
H1015       H  0.37865088  0.74401232  0.17933016     0.16500
H1016       H  0.23235931  0.81570991  0.16161206     0.16600
H1017       H  0.28233236  0.75367648  0.11174721     0.16500
In1018     In  0.99859518  0.00137906  0.10228050     1.36900
C1019       C  0.05678687  0.99464891  0.14744956     0.78000
O1020       O  0.98917768  0.94603092  0.09712581    -0.60500
O1021       O  0.01191541  0.96932149  0.07522097    -0.51400
C1022       C  0.93825269  0.01016756  0.10395433     0.70600
O1023       O  0.96748129  0.51748584  0.12273317    -0.46200
C1024       C  0.00264956  0.56087573  0.08268804     0.75300
O1025       O  0.02751442  0.98476186  0.14467888    -0.58100
O1026       O  0.99498428  0.53467634  0.06867344    -0.48200
O1027       O  0.05613054  0.50745130  0.12695144    -0.54500
C1028       C  0.00240580  0.94232715  0.08150427     0.85500
O1029       O  0.93961313  0.99822659  0.08380210    -0.56400
O1030       O  0.00774882  0.55623911  0.10611428    -0.59700
C1031       C  0.18404223  0.99659130  0.24796041     0.30400
C1032       C  0.24699425  0.99769739  0.29277883     0.30400
C1033       C  0.20226437  0.53074328  0.25586108    -0.05800
C1034       C  0.18289154  0.98637627  0.27377647    -0.06600
C1035       C  0.21216991  0.97413496  0.24780466    -0.06500
C1036       C  0.23424462  0.53133782  0.27850112    -0.05800
C1037       C  0.21520562  0.98707675  0.29717210    -0.06600
C1038       C  0.24380677  0.97453154  0.27022975    -0.06500
C1039       C  0.24843666  0.56253353  0.27979465    -0.31900
N1040       N  0.22663097  0.58040578  0.25837402     0.14600
C1041       C  0.19782006  0.56156788  0.24421082    -0.31900
H1042       H  0.17682022  0.56863588  0.22537965     0.16600
C1043       C  0.20678656  0.99292687  0.31783701    -0.30800
N1044       N  0.17172614  0.99369894  0.30800959     0.13400
C1045       C  0.15735257  0.99173921  0.28148639    -0.30800
C1046       C  0.26439332  0.95109943  0.26644826    -0.31100
N1047       N  0.24567321  0.93654032  0.24235667     0.13900
H1048       H  0.29076885  0.94479082  0.28038360     0.16500
C1049       C  0.21374496  0.95061490  0.23081206    -0.31100
H1050       H  0.19270351  0.94321816  0.21192341     0.16500
H1051       H  0.13008975  0.99636907  0.26880574     0.16500
H1052       H  0.27410547  0.57079731  0.29402143     0.16600
H1053       H  0.22462854  0.99829846  0.33825075     0.16500
In1054     In  0.04847067  0.75111354  0.04215132     1.36900
C1055       C  0.03001077  0.69101061  0.05181347     0.78000
O1056       O  0.99983891  0.75139691  0.50341585    -0.60500
O1057       O  0.04843574  0.75132784  0.50223543    -0.51400
C1058       C  0.03152084  0.81175261  0.05184769     0.70600
O1059       O  0.01836963  0.78531645  0.05564340    -0.46200
C1060       C  0.11578443  0.74975038  0.07760134     0.75300
O1061       O  0.02180065  0.71775099  0.05927261    -0.58100
O1062       O  0.10596727  0.74852737  0.05292243    -0.48200
O1063       O  0.04744683  0.69514563  0.03918851    -0.54500
C1064       C  0.01559375  0.75112959  0.48935073     0.85500
O1065       O  0.05300296  0.80696190  0.04275645    -0.56400
O1066       O  0.09120384  0.75189304  0.08375486    -0.59700
In1067     In  0.54429369  0.49418954  0.04071599     1.36900
C1068       C  0.52549791  0.93348226  0.04958450     0.78000
O1069       O  0.49563217  0.49502920  0.50170790    -0.60500
O1070       O  0.54455547  0.99566971  0.50107881    -0.51400
C1071       C  0.52633693  0.55327317  0.05228458     0.70600
O1072       O  0.52032818  0.52615976  0.06076300    -0.46200
C1073       C  0.61287601  0.99625187  0.07400063     0.75300
O1074       O  0.51442568  0.96007003  0.05486538    -0.58100
O1075       O  0.60132259  0.99392739  0.04921914    -0.48200
O1076       O  0.54604611  0.93800681  0.03960745    -0.54500
C1077       C  0.51179567  0.99556592  0.48791693     0.85500
O1078       O  0.54081773  0.54991499  0.03744231    -0.56400
O1079       O  0.58938277  0.49751035  0.08137517    -0.59700
In1080     In  0.00682375  0.99744648  0.34520083     1.36900
C1081       C  0.95060321  0.49470647  0.29815854     0.78000
O1082       O  0.02938463  0.94846066  0.36487144    -0.60500
O1083       O  0.98237523  0.96384474  0.36428493    -0.51400
C1084       C  0.06556696  0.99516296  0.34088477     0.70600
O1085       O  0.03982201  0.47621409  0.32806470    -0.46200
C1086       C  0.00523940  0.55699749  0.36577565     0.75300
O1087       O  0.98091607  0.99785539  0.30049756    -0.58100
O1088       O  0.01176917  0.53058364  0.37924289    -0.48200
O1089       O  0.94921697  0.49318177  0.31981698    -0.54500
C1090       C  0.00475887  0.94126020  0.37013605     0.85500
O1091       O  0.06163873  0.01499696  0.35666058    -0.56400
O1092       O  0.00071656  0.55274898  0.34240770    -0.59700
C1093       C  0.82417098  0.99354676  0.19718743     0.30400
C1094       C  0.75992121  0.99698403  0.15384764     0.30400
C1095       C  0.80561441  0.52700589  0.19244293    -0.05800
C1096       C  0.82410432  0.98764135  0.17023314    -0.06600
C1097       C  0.79687417  0.96881783  0.19622858    -0.06500
C1098       C  0.77301622  0.52901593  0.17069067    -0.05800
C1099       C  0.79094461  0.98945057  0.14749035    -0.06600
C1100       C  0.76447479  0.97034672  0.17458461    -0.06500
C1101       C  0.75978169  0.55979579  0.17216553    -0.31900
N1102       N  0.78325993  0.57572038  0.19434787     0.14600
C1103       C  0.81172309  0.55629275  0.20629627    -0.31900
H1104       H  0.83440812  0.56229495  0.22464541     0.16600
C1105       C  0.79790905  0.00007445  0.12689088    -0.30800
N1106       N  0.83274879  0.00371585  0.13601722     0.13400
C1107       C  0.84835908  0.99759380  0.16216847    -0.30800
C1108       C  0.74364220  0.94728166  0.17881008    -0.31100
N1109       N  0.76274687  0.93278914  0.20268024     0.13900
H1110       H  0.71644179  0.94205324  0.16594493     0.16500
C1111       C  0.79549276  0.94519977  0.21313291    -0.31100
H1112       H  0.81665895  0.93774295  0.23180681     0.16500
H1113       H  0.87540040  0.00333998  0.17471935     0.16500
H1114       H  0.73400743  0.56890806  0.15928913     0.16600
H1115       H  0.77910901  0.00797115  0.10742462     0.16500
In1116     In  0.49777648  0.74420475  0.10205532     1.36900
C1117       C  0.55779112  0.74105031  0.14620708     0.78000
O1118       O  0.49516160  0.68845173  0.10252559    -0.60500
O1119       O  0.50362737  0.71118079  0.07218168    -0.51400
C1120       C  0.43782450  0.75054078  0.10443805     0.70600
O1121       O  0.46659235  0.76145680  0.12174038    -0.46200
C1122       C  0.49925366  0.80302548  0.08056041     0.75300
O1123       O  0.52914116  0.73194726  0.14509194    -0.58100
O1124       O  0.49569613  0.77596146  0.06809125    -0.48200
O1125       O  0.55572263  0.75128133  0.12453931    -0.54500
C1126       C  0.50096234  0.68436506  0.08281967     0.85500
O1127       O  0.43927881  0.73612332  0.08514514    -0.56400
O1128       O  0.50139041  0.79950906  0.10329405    -0.59700
C1129       C  0.68572014  0.74414017  0.24615076     0.30400
C1130       C  0.74944925  0.74808291  0.28999912     0.30400
C1131       C  0.70328533  0.77852452  0.25248802    -0.05800
C1132       C  0.68546412  0.73599381  0.27253570    -0.06600
C1133       C  0.71386292  0.72172062  0.24616651    -0.06500
C1134       C  0.73602627  0.78062180  0.27426612    -0.05800
C1135       C  0.71819020  0.73836137  0.29561340    -0.06600
C1136       C  0.74583534  0.72303568  0.26829955    -0.06500
C1137       C  0.74913034  0.81184409  0.27343892    -0.31900
N1138       N  0.72522226  0.82810279  0.25188054     0.14600
C1139       C  0.69651446  0.80863612  0.24000163    -0.31900
H1140       H  0.67353553  0.81515139  0.22213286     0.16600
C1141       C  0.71004568  0.74842630  0.31577215    -0.30800
N1142       N  0.67507597  0.75078843  0.30608880     0.13400
C1143       C  0.66035540  0.74465358  0.27994219    -0.30800
C1144       C  0.76693917  0.70066622  0.26395968    -0.31100
N1145       N  0.74848580  0.68675865  0.23958096     0.13900
H1146       H  0.79368931  0.69490140  0.27744602     0.16500
C1147       C  0.71592135  0.69935283  0.22865127    -0.31100
H1148       H  0.69498189  0.69202749  0.20970379     0.16500
H1149       H  0.63325347  0.74916131  0.26670874     0.16500
H1150       H  0.77516695  0.82093525  0.28602654     0.16600
H1151       H  0.72805800  0.75693257  0.33537360     0.16500
In1152     In  0.96325135  0.74788816  0.40755643     1.36900
C1153       C  0.98180691  0.68821811  0.39712192     0.78000
O1154       O  0.01248808  0.74935548  0.44604958    -0.60500
O1155       O  0.96406752  0.74984738  0.44755837    -0.51400
C1156       C  0.98082570  0.80884447  0.39912814     0.70600
O1157       O  0.99226258  0.78275544  0.39334544    -0.46200
C1158       C  0.89510844  0.74792719  0.37294603     0.75300
O1159       O  0.98833656  0.71518386  0.38875866    -0.58100
O1160       O  0.90574523  0.74194101  0.39728812    -0.48200
O1161       O  0.96620327  0.69194813  0.41113398    -0.54500
C1162       C  0.99692943  0.75020629  0.46026452     0.85500
O1163       O  0.96067091  0.80347354  0.40937834    -0.56400
O1164       O  0.91929265  0.75337139  0.36674622    -0.59700
C1165       C  0.78705546  0.74945023  0.31255810    -0.05100
C1166       C  0.79562566  0.73947250  0.33866140    -0.32500
C1167       C  0.83027496  0.73994783  0.35876467     0.36700
C1168       C  0.85771552  0.74875555  0.35287500    -0.05400
C1169       C  0.84942195  0.75790559  0.32681065    -0.32400
C1170       C  0.81485531  0.75857983  0.30693180     0.36700
H1171       H  0.77596627  0.73000552  0.34369025     0.17000
O1172       O  0.83699721  0.73056293  0.38387609    -0.59900
H1173       H  0.86995375  0.76436452  0.32156159     0.17000
O1174       O  0.80865075  0.76588734  0.28148098    -0.60000
H1175       H  0.81885127  0.78832646  0.28220312     0.44000
H1176       H  0.83361072  0.75099672  0.39227591     0.44000
C1177       C  0.65206181  0.74143292  0.22006236    -0.05100
C1178       C  0.65122124  0.75633856  0.19725881    -0.32500
C1179       C  0.62084613  0.75679886  0.17327562     0.36700
C1180       C  0.59079939  0.74015614  0.17099142    -0.05400
C1181       C  0.59254467  0.72200467  0.19270183    -0.32400
C1182       C  0.62305039  0.72178335  0.21689816     0.36700
H1183       H  0.67433408  0.76804051  0.19801236     0.17000
O1184       O  0.62098367  0.77359496  0.15225134    -0.59900
H1185       H  0.57037993  0.70721766  0.19075963     0.17000
O1186       O  0.62551017  0.69958991  0.23608941    -0.60000
H1187       H  0.60483030  0.70323571  0.23911140     0.44000
H1188       H  0.61473640  0.79685290  0.15414492     0.44000
C1189       C  0.73259418  0.85576299  0.23919039    -0.05100
C1190       C  0.75042293  0.88372903  0.25403087    -0.32500
C1191       C  0.75975751  0.90977584  0.24206145     0.36700
C1192       C  0.75093035  0.90797956  0.21488283    -0.05400
C1193       C  0.73238690  0.88048563  0.19996683    -0.32400
C1194       C  0.72375090  0.85423297  0.21192586     0.36700
H1195       H  0.75730796  0.88516418  0.27491594     0.17000
O1196       O  0.77665193  0.93727391  0.25679562    -0.59900
H1197       H  0.72610683  0.87868169  0.17920516     0.17000
O1198       O  0.70815664  0.82650320  0.19698387    -0.60000
H1199       H  0.72741878  0.81080923  0.20045380     0.44000
H1200       H  0.80073592  0.92989049  0.26846123     0.44000
C1201       C  0.77648552  0.60474353  0.20607280    -0.05100
C1202       C  0.76074900  0.63264089  0.19047766    -0.32500
C1203       C  0.75231659  0.66034387  0.20146509     0.36700
C1204       C  0.75978794  0.66028137  0.22839683    -0.05400
C1205       C  0.77608926  0.63271638  0.24402249    -0.32400
C1206       C  0.78426134  0.60504045  0.23309437     0.36700
H1207       H  0.75488326  0.63280315  0.16976034     0.17000
O1208       O  0.73761378  0.68769035  0.18601938    -0.59900
H1209       H  0.78113411  0.63208657  0.26456332     0.17000
O1210       O  0.79743159  0.57743502  0.24852739    -0.60000
H1211       H  0.82174193  0.58344829  0.26111132     0.44000
H1212       H  0.71328914  0.68100356  0.17395991     0.44000
C1213       C  0.00232504  0.59036435  0.37583820    -0.05100
C1214       C  0.00599015  0.61879753  0.36287475    -0.32500
C1215       C  0.00057067  0.65075071  0.37015746     0.36700
C1216       C  0.99078541  0.65489373  0.39059129    -0.05400
C1217       C  0.98791866  0.62647832  0.40402822    -0.32400
C1218       C  0.99355332  0.59444294  0.39679728     0.36700
H1219       H  0.01260691  0.61625394  0.34665270     0.17000
O1220       O  0.00318745  0.67756435  0.35617990    -0.59900
H1221       H  0.98052725  0.62899821  0.41984595     0.17000
O1222       O  0.98909031  0.56732201  0.40967672    -0.60000
H1223       H  0.96394760  0.56167124  0.39998632     0.44000
H1224       H  0.02805487  0.68436953  0.36530539     0.44000
C1225       C  0.00136351  0.90828744  0.38058080    -0.05100
C1226       C  0.02044876  0.88121537  0.37840041    -0.32500
C1227       C  0.01484888  0.84889731  0.38508235     0.36700
C1228       C  0.98950164  0.84302189  0.39389557    -0.05400
C1229       C  0.97152813  0.87033481  0.39718454    -0.32400
C1230       C  0.97742404  0.90269902  0.39078582     0.36700
H1231       H  0.03914811  0.88490331  0.37075227     0.17000
O1232       O  0.03385115  0.82321782  0.38237848    -0.59900
H1233       H  0.95231770  0.86658760  0.40432867     0.17000
O1234       O  0.95920669  0.92856458  0.39422057    -0.60000
H1235       H  0.97392499  0.93676849  0.41249056     0.44000
H1236       H  0.05501168  0.82200520  0.39965115     0.44000
C1237       C  0.85763538  0.99183128  0.22350941    -0.05100
C1238       C  0.88985583  0.98227829  0.22501301    -0.32500
C1239       C  0.92054645  0.98431855  0.24889229     0.36700
C1240       C  0.91913013  0.99313856  0.27241171    -0.05400
C1241       C  0.88678086  0.49938425  0.27158123    -0.32400
C1242       C  0.85627271  0.49904303  0.24755758     0.36700
H1243       H  0.89169170  0.97204783  0.20815194     0.17000
O1244       O  0.95155344  0.97608037  0.24917614    -0.59900
H1245       H  0.88506828  0.50493631  0.28967717     0.17000
O1246       O  0.82475135  0.50392241  0.24771223    -0.60000
H1247       H  0.82812364  0.52202604  0.26055613     0.44000
H1248       H  0.95970942  0.99676859  0.24411396     0.44000
C1249       C  0.51591498  0.89994897  0.05538364    -0.05100
C1250       C  0.50330172  0.89686766  0.07417824    -0.32500
C1251       C  0.49639032  0.86553518  0.08161730     0.36700
C1252       C  0.50210111  0.83630534  0.07029695    -0.05400
C1253       C  0.51299390  0.83935806  0.05049155    -0.32400
C1254       C  0.52008846  0.87083814  0.04311931     0.36700
H1255       H  0.49956031  0.91884304  0.08369049     0.17000
O1256       O  0.48457452  0.86383282  0.10036393    -0.59900
H1257       H  0.51714286  0.81727357  0.04130832     0.17000
O1258       O  0.53052360  0.87287610  0.02361111    -0.60000
H1259       H  0.55578585  0.86797283  0.03250207     0.44000
H1260       H  0.45884475  0.86260497  0.09019487     0.44000
C1261       C  0.50535316  0.65080284  0.07372033    -0.05100
C1262       C  0.50234165  0.62235406  0.08703454    -0.32500
C1263       C  0.50867536  0.59045546  0.08015496     0.36700
C1264       C  0.51786578  0.58640843  0.05939147    -0.05400
C1265       C  0.52042118  0.61479075  0.04587249    -0.32400
C1266       C  0.51426376  0.64667444  0.05282784     0.36700
H1267       H  0.49575089  0.62482418  0.10327254     0.17000
O1268       O  0.50647920  0.56356629  0.09425589    -0.59900
H1269       H  0.52761797  0.61235631  0.02994715     0.17000
O1270       O  0.51824955  0.67364956  0.03960334    -0.60000
H1271       H  0.49481208  0.67753385  0.02477634     0.44000
H1272       H  0.52980181  0.56192714  0.10969759     0.44000
C1273       C  0.72193025  0.99804661  0.13203717    -0.05100
C1274       C  0.71212181  0.48800467  0.10572754    -0.32500
C1275       C  0.67698876  0.48806369  0.08640282     0.36700
C1276       C  0.65056178  0.99733692  0.09323275    -0.05400
C1277       C  0.66013108  0.00662508  0.11948450    -0.32400
C1278       C  0.69498023  0.00662586  0.13873442     0.36700
H1279       H  0.73122954  0.47876275  0.10005987     0.17000
O1280       O  0.66869590  0.47738225  0.06123630    -0.59900
H1281       H  0.64037425  0.01354920  0.12538602     0.17000
O1282       O  0.70242000  0.01477821  0.16431757    -0.60000
H1283       H  0.69200453  0.99680148  0.17050209     0.44000
H1284       H  0.67301323  0.49689354  0.05237295     0.44000
C1285       C  0.15134030  0.99273571  0.32211029    -0.05100
C1286       C  0.14498136  0.52191032  0.33276673    -0.32500
C1287       C  0.11814123  0.52272392  0.34038066     0.36700
C1288       C  0.09721028  0.99416723  0.33699146    -0.05400
C1289       C  0.10487288  0.96468182  0.32747080    -0.32400
C1290       C  0.13164709  0.96389541  0.32007821     0.36700
H1291       H  0.15933768  0.54449351  0.33360296     0.17000
O1292       O  0.11053094  0.55225278  0.34872080    -0.59900
H1293       H  0.08923396  0.94243553  0.32482670     0.17000
O1294       O  0.13749776  0.93519553  0.30957990    -0.60000
H1295       H  0.11985833  0.93506022  0.29070597     0.44000
H1296       H  0.12711365  0.55389017  0.36781044     0.44000
C1297       C  0.00653246  0.59430534  0.07314425    -0.05100
C1298       C  0.01439364  0.59735867  0.05174810    -0.32500
C1299       C  0.02194016  0.62863976  0.04440860     0.36700
C1300       C  0.02067916  0.65766752  0.05804696    -0.05400
C1301       C  0.01126742  0.65467727  0.07862607    -0.32400
C1302       C  0.00467797  0.62343730  0.08642174     0.36700
H1303       H  0.01588712  0.57533468  0.04124947     0.17000
O1304       O  0.03010597  0.63053803  0.02369652    -0.59900
H1305       H  0.00993799  0.67660452  0.08929498     0.17000
O1306       O  0.99599229  0.62175367  0.10688699    -0.60000
H1307       H  0.01838538  0.62367403  0.12323796     0.44000
H1308       H  0.05529506  0.62544415  0.03145431     0.44000
C1309       C  0.00775327  0.90901694  0.07233208    -0.05100
C1310       C  0.02941278  0.90602282  0.05991480    -0.32500
C1311       C  0.03705542  0.87471922  0.05285187     0.36700
C1312       C  0.02282798  0.84545343  0.05800998    -0.05400
C1313       C  0.00059393  0.84850158  0.06990485    -0.32400
C1314       C  0.99331178  0.87974894  0.07727313     0.36700
H1315       H  0.04118789  0.92801436  0.05618023     0.17000
O1316       O  0.05921086  0.87311692  0.04154315    -0.59900
H1317       H  0.98923816  0.82648107  0.07402543     0.17000
O1318       O  0.97190873  0.88128607  0.08923645    -0.60000
H1319       H  0.98713686  0.87650420  0.10818941     0.44000
H1320       H  0.04387031  0.87238943  0.52218052     0.44000
C1321       C  0.15073631  0.99475557  0.22157056    -0.05100
C1322       C  0.12072844  0.97769826  0.21917280    -0.32500
C1323       C  0.09000649  0.97720537  0.19527832     0.36700
C1324       C  0.08915708  0.99254394  0.17267280    -0.05400
C1325       C  0.11994024  0.50641160  0.17420640    -0.32400
C1326       C  0.15059898  0.50721980  0.19815524     0.36700
H1327       H  0.12098315  0.96347086  0.23537974     0.17000
O1328       O  0.06135770  0.96073368  0.19412857    -0.59900
H1329       H  0.12038243  0.51676202  0.15671040     0.17000
O1330       O  0.18097084  0.51815121  0.19822853    -0.60000
H1331       H  0.17581849  0.53995769  0.18905266     0.44000
H1332       H  0.04960793  0.97707308  0.20046449     0.44000
C1333       C  0.90572076  0.01423938  0.10643992    -0.05100
C1334       C  0.90505079  0.53764919  0.12462493    -0.32500
C1335       C  0.87822650  0.53717233  0.13210670     0.36700
C1336       C  0.85179408  0.01273177  0.12166458    -0.05400
C1337       C  0.85037129  0.99175930  0.10136343    -0.32400
C1338       C  0.87699115  0.99258392  0.09353165     0.37900
H1339       H  0.92634181  0.55526171  0.13414212     0.17000
O1340       O  0.87867751  0.55964227  0.15056683    -0.59900
H1341       H  0.83031133  0.97271871  0.09330523     0.17000
O1342       O  0.87649522  0.96972077  0.07537861    -0.60000
H1343       H  0.86417809  0.98089689  0.05799407     0.44000
H1344       H  0.89971175  0.55446512  0.16724265     0.44000
C1345       C  0.25610965  0.90911628  0.23133868    -0.05100
C1346       C  0.24622603  0.90828652  0.20405805    -0.32500
C1347       C  0.25379014  0.88069427  0.19247474     0.36700
C1348       C  0.27157524  0.85340563  0.20825945    -0.05400
C1349       C  0.28147414  0.85434351  0.23553876    -0.32400
C1350       C  0.27408224  0.88190813  0.24712139     0.36700
H1351       H  0.23259293  0.92918107  0.19171472     0.17000
O1352       O  0.24493181  0.88114774  0.16598048    -0.59900
H1353       H  0.29441257  0.83327064  0.24792348     0.17000
O1354       O  0.28253417  0.88106896  0.27353984    -0.60000
H1355       H  0.30811716  0.88443357  0.28296280     0.44000
H1356       H  0.21940755  0.87728069  0.15679178     0.44000
C1357       C  0.25682338  0.65985103  0.22311822    -0.05100
C1358       C  0.22291801  0.65861766  0.22068754    -0.32500
C1359       C  0.21300073  0.63341571  0.23309387     0.36700
C1360       C  0.23699668  0.60869677  0.24792575    -0.05400
C1361       C  0.27084812  0.61004183  0.25029545    -0.32400
C1362       C  0.28076473  0.63507524  0.23801248     0.36700
H1363       H  0.20424666  0.67749326  0.20941991     0.17000
O1364       O  0.17983633  0.63312585  0.23058933    -0.59900
H1365       H  0.28941997  0.59075809  0.26085153     0.17000
O1366       O  0.31367962  0.63434513  0.24001596    -0.60000
H1367       H  0.31120712  0.62277846  0.22378955     0.44000
H1368       H  0.18100552  0.64710093  0.24542947     0.44000
C1369       C  0.35445351  0.75306380  0.12539015    -0.05100
C1370       C  0.35278115  0.73028216  0.10604135    -0.32500
C1371       C  0.37838915  0.73052761  0.09717865     0.36700
C1372       C  0.40594389  0.75388780  0.10779522    -0.05400
C1373       C  0.40535619  0.77869545  0.12506263    -0.32400
C1374       C  0.38004985  0.77825348  0.13401325     0.36700
H1375       H  0.33336985  0.71056834  0.09956388     0.17000
O1376       O  0.37822080  0.70578451  0.08042373    -0.59900
H1377       H  0.42585775  0.79736456  0.13296486     0.17000
O1378       O  0.38133135  0.80158159  0.15217475    -0.60000
H1379       H  0.40200606  0.79589682  0.16893593     0.44000
H1380       H  0.36547400  0.71521421  0.06239876     0.44000
C1381       C  0.22427469  0.74548956  0.13617630    -0.05100
C1382       C  0.19832165  0.75677639  0.14286646    -0.32500
C1383       C  0.16328344  0.75841159  0.12416776     0.36700
C1384       C  0.15289172  0.74838254  0.09780807    -0.05400
C1385       C  0.17808218  0.73520887  0.09123866    -0.32400
C1386       C  0.21308990  0.73250501  0.11027745     0.36700
H1387       H  0.20523497  0.76432295  0.16300598     0.17000
O1388       O  0.13958354  0.77063875  0.13185787    -0.59900
H1389       H  0.17034646  0.72557416  0.07147488     0.17000
O1390       O  0.23500067  0.71476828  0.10363002    -0.60000
H1391       H  0.23419289  0.69166065  0.10957419     0.44000
H1392       H  0.13378924  0.75162570  0.14034668     0.44000
C1393       C  0.42843051  0.74561399  0.27104703    -0.05100
C1394       C  0.41150243  0.71542713  0.25984224    -0.32500
C1395       C  0.38007495  0.71489921  0.23627983     0.36700
C1396       C  0.36383126  0.74513042  0.22448879    -0.05400
C1397       C  0.38371256  0.77464834  0.23355136    -0.32400
C1398       C  0.41530363  0.77519760  0.25676102     0.36700
H1399       H  0.42262749  0.69205950  0.26937062     0.17000
O1400       O  0.36628535  0.68494741  0.22412008    -0.59900
H1401       H  0.37519784  0.79754641  0.22255194     0.17000
O1402       O  0.43330280  0.80471856  0.26498579    -0.60000
H1403       H  0.42207695  0.81673187  0.27434172     0.44000
H1404       H  0.36664630  0.66980292  0.23804563     0.44000
C1405       C  0.60262570  0.75738460  0.33662752    -0.05100
C1406       C  0.60286246  0.78157494  0.31885777    -0.32500
C1407       C  0.62896364  0.78184894  0.31062278     0.36700
C1408       C  0.65538729  0.75775441  0.32023917    -0.05400
C1409       C  0.65684522  0.73542573  0.33972170    -0.32400
C1410       C  0.63066441  0.73508570  0.34795975     0.36700
H1411       H  0.58185617  0.79935941  0.31036379     0.17000
O1412       O  0.62792217  0.80492681  0.29242101    -0.59900
H1413       H  0.67664152  0.71636057  0.34681055     0.17000
O1414       O  0.63074467  0.71056865  0.36481042    -0.60000
H1415       H  0.64441334  0.71995254  0.38283304     0.44000
H1416       H  0.60723410  0.79898302  0.27564124     0.44000
C1417       C  0.48663715  0.89777436  0.39255298    -0.05100
C1418       C  0.52000039  0.88968389  0.39573662    -0.32500
C1419       C  0.52760749  0.85725425  0.39053804     0.36700
C1420       C  0.50146006  0.83225771  0.38155142    -0.05400
C1421       C  0.46841345  0.84025759  0.37903269    -0.32400
C1422       C  0.46089970  0.87250121  0.38437275     0.36700
H1423       H  0.54022771  0.90862465  0.40209119     0.17000
O1424       O  0.56014849  0.85085542  0.39296098    -0.59900
H1425       H  0.44780019  0.82168255  0.37202228     0.17000
O1426       O  0.42778157  0.87926537  0.38053653    -0.60000
H1427       H  0.41519567  0.88694938  0.36194591     0.44000
H1428       H  0.57447983  0.84518234  0.41186063     0.44000
C1429       C  0.50732736  0.65188124  0.37600403    -0.05100
C1430       C  0.49171508  0.64876155  0.39292825    -0.32500
C1431       C  0.48361318  0.61737570  0.39967172     0.36700
C1432       C  0.49116619  0.58796375  0.38957384    -0.05400
C1433       C  0.50792376  0.59101238  0.37338098    -0.32400
C1434       C  0.51616850  0.62246005  0.36672296     0.36700
H1435       H  0.48488336  0.67082935  0.40051935     0.17000
O1436       O  0.46820141  0.61589801  0.41616816    -0.59900
H1437       H  0.51434683  0.56891876  0.36554540     0.17000
O1438       O  0.53212057  0.62400687  0.35059067    -0.60000
H1439       H  0.55743064  0.62439245  0.36278113     0.44000
H1440       H  0.44291962  0.61835145  0.40442905     0.44000
C1441       C  0.35652928  0.99679533  0.35289396    -0.05100
C1442       C  0.33137559  0.98041472  0.35812771    -0.32500
C1443       C  0.29578937  0.98010927  0.33941625     0.36700
C1444       C  0.28460730  0.99764441  0.31524921    -0.05400
C1445       C  0.31052154  0.51229639  0.30983611    -0.32400
C1446       C  0.34560652  0.51270727  0.32836107     0.36700
H1447       H  0.33950624  0.96657024  0.37635201     0.17000
O1448       O  0.27328474  0.95955501  0.34367234    -0.59900
H1449       H  0.30365669  0.52318751  0.29065509     0.17000
O1450       O  0.36910233  0.52855926  0.32201590    -0.60000
H1451       H  0.36851300  0.55231223  0.32665722     0.44000
H1452       H  0.27520484  0.96594129  0.36122027     0.44000
In1453     In  0.46234295  0.49436817  0.90597490     1.36900
C1454       C  0.47855945  0.93239399  0.89739031     0.78000
O1455       O  0.51026705  0.49361324  0.94522218    -0.60500
O1456       O  0.46128122  0.99719983  0.94545528    -0.51400
C1457       C  0.48120436  0.55435231  0.89539358     0.70600
O1458       O  0.48761089  0.52740948  0.88688118    -0.46200
C1459       C  0.39415273  0.99583391  0.87218649     0.75300
O1460       O  0.49545025  0.95781024  0.89649979    -0.58100
O1461       O  0.40520346  0.99169658  0.89679276    -0.48200
O1462       O  0.45376864  0.93893081  0.90258236    -0.54500
C1463       C  0.49395681  0.99558987  0.95882163     0.85500
O1464       O  0.46523351  0.55028146  0.90913916    -0.56400
O1465       O  0.41796429  0.49912638  0.86520194    -0.59700
In1466     In  0.51337425  0.74565985  0.84609761     1.36900
C1467       C  0.45918928  0.74568845  0.79750265     0.78000
O1468       O  0.52183766  0.69005905  0.84935544    -0.60500
O1469       O  0.50412020  0.71236881  0.87475515    -0.51400
C1470       C  0.57129985  0.75360240  0.84071391     0.70600
O1471       O  0.54142641  0.76054268  0.82283208    -0.46200
C1472       C  0.50663005  0.79937916  0.87163001     0.75300
O1473       O  0.47636055  0.77154292  0.80854128    -0.58100
O1474       O  0.48162993  0.78008249  0.85798274    -0.48200
O1475       O  0.46993833  0.71982702  0.81131198    -0.54500
C1476       C  0.51175321  0.68563996  0.86680442     0.85500
O1477       O  0.57177814  0.74255991  0.86170979    -0.56400
O1478       O  0.53573037  0.78925439  0.87441883    -0.59700
C1479       C  0.32705344  0.74574954  0.70108522     0.30400
C1480       C  0.26229710  0.74594683  0.65806708     0.30400
C1481       C  0.30772329  0.77918405  0.69481868    -0.05800
C1482       C  0.32593328  0.73600717  0.67461274    -0.06600
C1483       C  0.29990838  0.72250043  0.70266871    -0.06500
C1484       C  0.27494715  0.77955601  0.67282049    -0.05800
C1485       C  0.29310459  0.73710717  0.65205473    -0.06600
C1486       C  0.26744497  0.72184534  0.68075613    -0.06500
C1487       C  0.25887785  0.80857876  0.67446236    -0.31900
N1488       N  0.28025362  0.82489568  0.69709555     0.14600
C1489       C  0.30947542  0.80669792  0.70986352    -0.31900
H1490       H  0.32936632  0.81192629  0.72972984     0.16600
C1491       C  0.30062947  0.74544626  0.63127782    -0.30800
N1492       N  0.33560095  0.74622853  0.64019016     0.13400
C1493       C  0.35102624  0.74114958  0.66651132    -0.30800
C1494       C  0.24742249  0.69881053  0.68603006    -0.31100
N1495       N  0.26693587  0.68601734  0.71057394     0.13900
H1496       H  0.22089595  0.69151736  0.67285301     0.16500
C1497       C  0.29857430  0.70120178  0.72110126    -0.31100
H1498       H  0.31901656  0.69725265  0.74093023     0.16500
H1499       H  0.37865085  0.74401234  0.67933023     0.16500
H1500       H  0.23235926  0.81570998  0.66161215     0.16600
H1501       H  0.28233235  0.75367633  0.61174731     0.16500
In1502     In  0.99859522  0.00137909  0.60228050     1.36900
C1503       C  0.05678693  0.99464910  0.64744958     0.78000
O1504       O  0.98917794  0.94603093  0.59712591    -0.60500
O1505       O  0.01191553  0.96932152  0.57522098    -0.51400
C1506       C  0.93825280  0.01016757  0.60395449     0.70600
O1507       O  0.96748133  0.51748575  0.62273314    -0.46200
C1508       C  0.00264927  0.56087573  0.58268782     0.75300
O1509       O  0.02751458  0.98476164  0.64467884    -0.58100
O1510       O  0.99498402  0.53467632  0.56867326    -0.48200
O1511       O  0.05613037  0.50745151  0.62695140    -0.54500
C1512       C  0.00240606  0.94232717  0.58150436     0.85500
O1513       O  0.93961317  0.99822669  0.58380222    -0.56400
O1514       O  0.00774857  0.55623914  0.60611408    -0.59700
C1515       C  0.18404235  0.99659142  0.74796040     0.30400
C1516       C  0.24699438  0.99769749  0.79277882     0.30400
C1517       C  0.20226435  0.53074337  0.75586099    -0.05800
C1518       C  0.18289167  0.98637639  0.77377645    -0.06600
C1519       C  0.21217002  0.97413505  0.74780467    -0.06500
C1520       C  0.23424463  0.53133784  0.77850101    -0.05800
C1521       C  0.21520574  0.98707686  0.79717209    -0.06600
C1522       C  0.24380687  0.97453163  0.77022976    -0.06500
C1523       C  0.24843675  0.56253352  0.77979457    -0.31900
N1524       N  0.22663105  0.58040585  0.75837401     0.14600
C1525       C  0.19782006  0.56156805  0.74421081    -0.31900
H1526       H  0.17682022  0.56863619  0.72537967     0.16600
C1527       C  0.20678664  0.99292701  0.81783697    -0.30800
N1528       N  0.17172620  0.99369910  0.80800952     0.13400
C1529       C  0.15735267  0.99173935  0.78148632    -0.30800
C1530       C  0.26439347  0.95109959  0.76644828    -0.31100
N1531       N  0.24567338  0.93654051  0.74235667     0.13900
H1532       H  0.29076900  0.94479099  0.78038364     0.16500
C1533       C  0.21374510  0.95061502  0.73081207    -0.31100
H1534       H  0.19270366  0.94321824  0.71192343     0.16500
H1535       H  0.13008986  0.99636919  0.76880565     0.16500
H1536       H  0.27410563  0.57079721  0.79402130     0.16600
H1537       H  0.22462861  0.99829858  0.83825072     0.16500
In1538     In  0.04847068  0.75111356  0.54215125     1.36900
C1539       C  0.03001056  0.69101061  0.55181319     0.78000
O1540       O  0.99983890  0.75139665  0.00341591    -0.60500
O1541       O  0.04843576  0.75132781  0.00223554    -0.51400
C1542       C  0.03152092  0.81175264  0.55184771     0.70600
O1543       O  0.01836970  0.78531648  0.55564341    -0.46200
C1544       C  0.11578444  0.74975028  0.57760132     0.75300
O1545       O  0.02180060  0.71775099  0.55927245    -0.58100
O1546       O  0.10596731  0.74852753  0.55292242    -0.48200
O1547       O  0.04744659  0.69514562  0.53918822    -0.54500
C1548       C  0.01559378  0.75112940  0.98935081     0.85500
O1549       O  0.05300302  0.80696194  0.54275646    -0.56400
O1550       O  0.09120381  0.75189272  0.58375484    -0.59700
In1551     In  0.54429391  0.49418953  0.54071618     1.36900
C1552       C  0.52549801  0.93348231  0.54958466     0.78000
O1553       O  0.49563195  0.49502920  0.00170767    -0.60500
O1554       O  0.54455553  0.99566970  0.00107873    -0.51400
C1555       C  0.52633728  0.55327318  0.55228490     0.70600
O1556       O  0.52032856  0.52615976  0.56076333    -0.46200
C1557       C  0.61287598  0.99625200  0.57400079     0.75300
O1558       O  0.51442569  0.96007007  0.55486548    -0.58100
O1559       O  0.60132260  0.99392767  0.54921929    -0.48200
O1560       O  0.54604630  0.93800689  0.53960769    -0.54500
C1561       C  0.51179573  0.99556593  0.98791686     0.85500
O1562       O  0.54081795  0.54991499  0.53744254    -0.56400
O1563       O  0.58938303  0.49751013  0.58137538    -0.59700
In1564     In  0.00682378  0.99744637  0.84520085     1.36900
C1565       C  0.95060328  0.49470634  0.79815860     0.78000
O1566       O  0.02938497  0.94846081  0.86487190    -0.60500
O1567       O  0.98237498  0.96384444  0.86428458    -0.51400
C1568       C  0.06556689  0.99516288  0.84088464     0.70600
O1569       O  0.03982208  0.47621354  0.82806488    -0.46200
C1570       C  0.00523960  0.55699702  0.86577592     0.75300
O1571       O  0.98091617  0.99785469  0.80049758    -0.58100
O1572       O  0.01176903  0.53058308  0.87924303    -0.48200
O1573       O  0.94921696  0.49318225  0.81981702    -0.54500
C1574       C  0.00475891  0.94126012  0.87013611     0.85500
O1575       O  0.06163867  0.01499698  0.85666040    -0.56400
O1576       O  0.00071699  0.55274863  0.84240802    -0.59700
C1577       C  0.82417104  0.99354679  0.69718752     0.30400
C1578       C  0.75992125  0.99698401  0.65384775     0.30400
C1579       C  0.80561457  0.52700596  0.69244308    -0.05800
C1580       C  0.82410437  0.98764136  0.67023323    -0.06600
C1581       C  0.79687429  0.96881784  0.69622870    -0.06500
C1582       C  0.77301638  0.52901602  0.67069082    -0.05800
C1583       C  0.79094464  0.98945057  0.64749045    -0.06600
C1584       C  0.76447489  0.97034670  0.67458475    -0.06500
C1585       C  0.75978183  0.55979586  0.67216569    -0.31900
N1586       N  0.78326009  0.57572047  0.69434801     0.14600
C1587       C  0.81172326  0.55629285  0.70629640    -0.31900
H1588       H  0.83440832  0.56229509  0.72464551     0.16600
C1589       C  0.79790903  0.00007446  0.62689097    -0.30800
N1590       N  0.83274878  0.00371585  0.63601729     0.13400
C1591       C  0.84835910  0.99759381  0.66216853    -0.30800
C1592       C  0.74364235  0.94728162  0.67881023    -0.31100
N1593       N  0.76274707  0.93278909  0.70268038     0.13900
H1594       H  0.71644193  0.94205321  0.66594512     0.16500
C1595       C  0.79549295  0.94519977  0.71313305    -0.31100
H1596       H  0.81665915  0.93774302  0.73180696     0.16500
H1597       H  0.87540043  0.00333999  0.67471941     0.16500
H1598       H  0.73400757  0.56890813  0.65928929     0.16600
H1599       H  0.77910895  0.00797117  0.60742473     0.16500
In1600     In  0.49777663  0.74420477  0.60205552     1.36900
C1601       C  0.55779127  0.74105045  0.64620723     0.78000
O1602       O  0.49516225  0.68845175  0.60252604    -0.60500
O1603       O  0.50362746  0.71118076  0.57218186    -0.51400
C1604       C  0.43782458  0.75054065  0.60443825     0.70600
O1605       O  0.46659243  0.76145661  0.62174063    -0.46200
C1606       C  0.49925379  0.80302550  0.58056057     0.75300
O1607       O  0.52914136  0.73194724  0.64509209    -0.58100
O1608       O  0.49569633  0.77596146  0.56809146    -0.48200
O1609       O  0.55572275  0.75128157  0.62453948    -0.54500
C1610       C  0.50096275  0.68436505  0.58282001     0.85500
O1611       O  0.43927894  0.73612330  0.58514532    -0.56400
O1612       O  0.50139051  0.79950912  0.60329420    -0.59700
C1613       C  0.68572030  0.74414036  0.74615087     0.30400
C1614       C  0.74944943  0.74808296  0.78999923     0.30400
C1615       C  0.70328553  0.77852468  0.75248822    -0.05800
C1616       C  0.68546425  0.73599392  0.77253577    -0.06600
C1617       C  0.71386307  0.72172080  0.74616659    -0.06500
C1618       C  0.73602649  0.78062190  0.77426630    -0.05800
C1619       C  0.71819033  0.73836139  0.79561349    -0.06600
C1620       C  0.74583549  0.72303579  0.76829963    -0.06500
C1621       C  0.74913056  0.81184422  0.77343914    -0.31900
N1622       N  0.72522244  0.82810297  0.75188082     0.14600
C1623       C  0.69651464  0.80863633  0.74000192    -0.31900
H1624       H  0.67353569  0.81515166  0.72213318     0.16600
C1625       C  0.71004577  0.74842628  0.81577223    -0.30800
N1626       N  0.67507606  0.75078848  0.80608887     0.13400
C1627       C  0.66035551  0.74465370  0.77994224    -0.30800
C1628       C  0.76693935  0.70066646  0.76395966    -0.31100
N1629       N  0.74848598  0.68675898  0.73958092     0.13900
H1630       H  0.79368955  0.69490173  0.77744594     0.16500
C1631       C  0.71592152  0.69935317  0.72865126    -0.31100
H1632       H  0.69498207  0.69202798  0.70970373     0.16500
H1633       H  0.63325358  0.74916147  0.76670878     0.16500
H1634       H  0.77516719  0.82093538  0.78602674     0.16600
H1635       H  0.72805807  0.75693252  0.83537370     0.16500
In1636     In  0.96325159  0.74788787  0.90755649     1.36900
C1637       C  0.98180721  0.68821771  0.89712214     0.78000
O1638       O  0.01248824  0.74935499  0.94604971    -0.60500
O1639       O  0.96406763  0.74984734  0.94755839    -0.51400
C1640       C  0.98082586  0.80884424  0.89912816     0.70600
O1641       O  0.99226274  0.78275522  0.89334544    -0.46200
C1642       C  0.89510868  0.74792698  0.87294607     0.75300
O1643       O  0.98833701  0.71518342  0.88875892    -0.58100
O1644       O  0.90574545  0.74194076  0.89728815    -0.48200
O1645       O  0.96620336  0.69194782  0.91113404    -0.54500
C1646       C  0.99692953  0.75020604  0.96026459     0.85500
O1647       O  0.96067114  0.80347327  0.90937841    -0.56400
O1648       O  0.91929290  0.75337111  0.86674627    -0.59700
C1649       C  0.78705568  0.74945026  0.81255817    -0.05100
C1650       C  0.79562587  0.73947259  0.83866149    -0.32500
C1651       C  0.83027518  0.73994786  0.85876474     0.36700
C1652       C  0.85771575  0.74875547  0.85287506    -0.05400
C1653       C  0.84942219  0.75790556  0.82681071    -0.32400
C1654       C  0.81485555  0.75857985  0.80693186     0.36700
H1655       H  0.77596646  0.73000571  0.84369035     0.17000
O1656       O  0.83699740  0.73056297  0.88387618    -0.59900
H1657       H  0.86995401  0.76436448  0.82156166     0.17000
O1658       O  0.80865100  0.76588753  0.78148106    -0.60000
H1659       H  0.81885164  0.78832656  0.78220329     0.44000
H1660       H  0.83361102  0.75099674  0.89227602     0.44000
C1661       C  0.65206196  0.74143319  0.72006247    -0.05100
C1662       C  0.65122133  0.75633897  0.69725895    -0.32500
C1663       C  0.62084624  0.75679916  0.67327574     0.36700
C1664       C  0.59079953  0.74015636  0.67099155    -0.05400
C1665       C  0.59254485  0.72200489  0.69270195    -0.32400
C1666       C  0.62305060  0.72178351  0.71689824     0.36700
H1667       H  0.67433415  0.76804100  0.69801253     0.17000
O1668       O  0.62098376  0.77359519  0.65225142    -0.59900
H1669       H  0.57038011  0.70721786  0.69075974     0.17000
O1670       O  0.62551047  0.69958994  0.73608943    -0.60000
H1671       H  0.60483064  0.70323565  0.73911148     0.44000
H1672       H  0.61473647  0.79685313  0.65414496     0.44000
C1673       C  0.73259433  0.85576311  0.73919061    -0.05100
C1674       C  0.75042303  0.88372919  0.75403103    -0.32500
C1675       C  0.75975760  0.90977594  0.74206159     0.36700
C1676       C  0.75093052  0.90797956  0.71488299    -0.05400
C1677       C  0.73238703  0.88048562  0.69996700    -0.32400
C1678       C  0.72375097  0.85423303  0.71192606     0.36700
H1679       H  0.75730805  0.88516440  0.77491609     0.17000
O1680       O  0.77665211  0.93727397  0.75679577    -0.59900
H1681       H  0.72610698  0.87868159  0.67920534     0.17000
O1682       O  0.70815662  0.82650325  0.69698411    -0.60000
H1683       H  0.72741872  0.81080923  0.70045402     0.44000
H1684       H  0.80073607  0.92989052  0.76846127     0.44000
C1685       C  0.77648572  0.60474370  0.70607289    -0.05100
C1686       C  0.76074904  0.63264096  0.69047767    -0.32500
C1687       C  0.75231663  0.66034401  0.70146503     0.36700
C1688       C  0.75978810  0.66028166  0.72839681    -0.05400
C1689       C  0.77608956  0.63271675  0.74402255    -0.32400
C1690       C  0.78426172  0.60504080  0.73309450     0.36700
H1691       H  0.75488321  0.63280310  0.66976033     0.17000
O1692       O  0.73761371  0.68769039  0.68601922    -0.59900
H1693       H  0.78113448  0.63208701  0.76456340     0.17000
O1694       O  0.79743224  0.57743551  0.74852764    -0.60000
H1695       H  0.82174255  0.58344896  0.76111154     0.44000
H1696       H  0.71328909  0.68100347  0.67395972     0.44000
C1697       C  0.00232533  0.59036386  0.87583854    -0.05100
C1698       C  0.00599106  0.61879708  0.86287541    -0.32500
C1699       C  0.00057158  0.65075027  0.87015809     0.36700
C1700       C  0.99078574  0.65489328  0.89059162    -0.05400
C1701       C  0.98791840  0.62647783  0.90402828    -0.32400
C1702       C  0.99355302  0.59444244  0.89679733     0.36700
H1703       H  0.01260832  0.61625351  0.84665360     0.17000
O1704       O  0.00318893  0.67756395  0.85618079    -0.59900
H1705       H  0.98052655  0.62899772  0.91984578     0.17000
O1706       O  0.98908955  0.56732150  0.90967654    -0.60000
H1707       H  0.96394679  0.56167079  0.89998582     0.44000
H1708       H  0.02805643  0.68436897  0.86530656     0.44000
C1709       C  0.00136356  0.90828734  0.88058088    -0.05100
C1710       C  0.02044913  0.88121536  0.87840078    -0.32500
C1711       C  0.01484925  0.84889725  0.88508267     0.36700
C1712       C  0.98950171  0.84302170  0.89389557    -0.05400
C1713       C  0.97152786  0.87033453  0.89718424    -0.32400
C1714       C  0.97742376  0.90269879  0.89078558     0.36700
H1715       H  0.03914874  0.88490341  0.87075289     0.17000
O1716       O  0.03385184  0.82321785  0.88237908    -0.59900
H1717       H  0.95231714  0.86658720  0.90432809     0.17000
O1718       O  0.95920599  0.92856423  0.89422000    -0.60000
H1719       H  0.97392359  0.93676784  0.91249019     0.44000
H1720       H  0.05501195  0.82200507  0.89965200     0.44000
C1721       C  0.85763545  0.99183134  0.72350947    -0.05100
C1722       C  0.88985586  0.98227823  0.72501305    -0.32500
C1723       C  0.92054647  0.98431836  0.74889234     0.36700
C1724       C  0.91913018  0.99313842  0.77241176    -0.05400
C1725       C  0.88678098  0.49938425  0.77158132    -0.32400
C1726       C  0.85627285  0.49904304  0.74755767     0.36700
H1727       H  0.89169171  0.97204778  0.70815196     0.17000
O1728       O  0.95155343  0.97608012  0.74917617    -0.59900
H1729       H  0.88506841  0.50493642  0.78967724     0.17000
O1730       O  0.82475150  0.50392245  0.74771231    -0.60000
H1731       H  0.82812378  0.52202628  0.76055610     0.44000
H1732       H  0.95970944  0.99676833  0.74411400     0.44000
C1733       C  0.51591503  0.89994901  0.55538375    -0.05100
C1734       C  0.50330182  0.89686768  0.57417837    -0.32500
C1735       C  0.49639048  0.86553519  0.58161746     0.36700
C1736       C  0.50210122  0.83630535  0.57029708    -0.05400
C1737       C  0.51299398  0.83935807  0.55049167    -0.32400
C1738       C  0.52008847  0.87083816  0.54311941     0.36700
H1739       H  0.49956044  0.91884304  0.58369066     0.17000
O1740       O  0.48457488  0.86383282  0.60036420    -0.59900
H1741       H  0.51714306  0.81727359  0.54130849     0.17000
O1742       O  0.53052377  0.87287611  0.52361131    -0.60000
H1743       H  0.55578596  0.86797280  0.53250236     0.44000
H1744       H  0.45884508  0.86260543  0.59019524     0.44000
C1745       C  0.50535360  0.65080282  0.57372071    -0.05100
C1746       C  0.50234264  0.62235408  0.58703520    -0.32500
C1747       C  0.50867631  0.59045548  0.58015560     0.36700
C1748       C  0.51786622  0.58640842  0.55939185    -0.05400
C1749       C  0.52042111  0.61479071  0.54587261    -0.32400
C1750       C  0.51426365  0.64667439  0.55282794     0.36700
H1751       H  0.49575229  0.62482422  0.60327341     0.17000
O1752       O  0.50648063  0.56356631  0.59425674    -0.59900
H1753       H  0.52761750  0.61235622  0.52994707     0.17000
O1754       O  0.51824902  0.67364950  0.53960321    -0.60000
H1755       H  0.49481143  0.67753366  0.52477633     0.44000
H1756       H  0.52980338  0.56192732  0.60969825     0.44000
C1757       C  0.72193027  0.99804660  0.63203729    -0.05100
C1758       C  0.71212205  0.48800483  0.60572770    -0.32500
C1759       C  0.67698903  0.48806383  0.58640296     0.36700
C1760       C  0.65056176  0.99733696  0.59323294    -0.05400
C1761       C  0.66013112  0.00662507  0.61948472    -0.32400
C1762       C  0.69498030  0.00662583  0.63873460     0.36700
H1763       H  0.73122981  0.47876285  0.60006008     0.17000
O1764       O  0.66869624  0.47738227  0.56123647    -0.59900
H1765       H  0.64037434  0.01354922  0.62538629     0.17000
O1766       O  0.70242017  0.01477817  0.66431777    -0.60000
H1767       H  0.69200478  0.99680138  0.67050235     0.44000
H1768       H  0.67301325  0.49689362  0.55237296     0.44000
C1769       C  0.15134029  0.99273583  0.82211017    -0.05100
C1770       C  0.14498145  0.52190998  0.83276675    -0.32500
C1771       C  0.11814130  0.52272358  0.84038067     0.36700
C1772       C  0.09721015  0.99416722  0.83699124    -0.05400
C1773       C  0.10487275  0.96468187  0.82747051    -0.32400
C1774       C  0.13164705  0.96389552  0.82007802     0.36700
H1775       H  0.15933789  0.54449314  0.83360312     0.17000
O1776       O  0.11053128  0.55225237  0.84872107    -0.59900
H1777       H  0.08923380  0.94243558  0.82482632     0.17000
O1778       O  0.13749776  0.93519567  0.80957970    -0.60000
H1779       H  0.11985837  0.93506042  0.79070578     0.44000
H1780       H  0.12711391  0.55388938  0.86781074     0.44000
C1781       C  0.00653212  0.59430535  0.57314399    -0.05100
C1782       C  0.01439310  0.59735867  0.55174772    -0.32500
C1783       C  0.02193962  0.62863976  0.54440820     0.36700
C1784       C  0.02067883  0.65766752  0.55804665    -0.05400
C1785       C  0.01126725  0.65467729  0.57862584    -0.32400
C1786       C  0.00467782  0.62343732  0.58642154     0.36700
H1787       H  0.01588640  0.57533468  0.54124901     0.17000
O1788       O  0.03010505  0.63053804  0.52369593    -0.59900
H1789       H  0.00993792  0.67660455  0.58929478     0.17000
O1790       O  0.99599226  0.62175370  0.60688685    -0.60000
H1791       H  0.01838538  0.62367403  0.62323778     0.44000
H1792       H  0.05529410  0.62544413  0.53145349     0.44000
C1793       C  0.00775359  0.90901695  0.57233224    -0.05100
C1794       C  0.02941272  0.90602285  0.55991464    -0.32500
C1795       C  0.03705520  0.87471924  0.55285162     0.36700
C1796       C  0.02282808  0.84545345  0.55801002    -0.05400
C1797       C  0.00059444  0.84850159  0.56990524    -0.32400
C1798       C  0.99331238  0.87974895  0.57727356     0.36700
H1799       H  0.04118760  0.92801439  0.55617984     0.17000
O1800       O  0.05921022  0.87311693  0.54154252    -0.59900
H1801       H  0.98923893  0.82648106  0.57402606     0.17000
O1802       O  0.97190959  0.88128607  0.58923710    -0.60000
H1803       H  0.98713796  0.87650444  0.60819007     0.44000
H1804       H  0.04387127  0.87238923  0.02218111     0.44000
C1805       C  0.15073642  0.99475574  0.72157054    -0.05100
C1806       C  0.12072854  0.97769840  0.71917276    -0.32500
C1807       C  0.09000656  0.97720558  0.69527830     0.36700
C1808       C  0.08915714  0.99254421  0.67267281    -0.05400
C1809       C  0.11994013  0.50641187  0.67420633    -0.32400
C1810       C  0.15059893  0.50722004  0.69815516     0.36700
H1811       H  0.12098328  0.96347091  0.73537967     0.17000
O1812       O  0.06135773  0.96073389  0.69412851    -0.59900
H1813       H  0.12038224  0.51676239  0.65671032     0.17000
O1814       O  0.18097077  0.51815163  0.69822849    -0.60000
H1815       H  0.17581829  0.53995798  0.68905248     0.44000
H1816       H  0.04960817  0.97707314  0.70046472     0.44000
C1817       C  0.90572089  0.01423929  0.60644011    -0.05100
C1818       C  0.90505106  0.53764921  0.62462515    -0.32500
C1819       C  0.87822688  0.53717236  0.63210704     0.36700
C1820       C  0.85179409  0.01273175  0.62166464    -0.05400
C1821       C  0.85037137  0.99175924  0.60136354    -0.32400
C1822       C  0.87699132  0.99258376  0.59353185     0.37900
H1823       H  0.92634215  0.55526166  0.63414236     0.17000
O1824       O  0.87867805  0.55964224  0.65056726    -0.59900
H1825       H  0.83031139  0.97271867  0.59330529     0.17000
O1826       O  0.87649546  0.96972056  0.57537888    -0.60000
H1827       H  0.86417805  0.98089655  0.55799426     0.44000
H1828       H  0.89971230  0.55446508  0.66724301     0.44000
C1829       C  0.25610981  0.90911649  0.73133868    -0.05100
C1830       C  0.24622632  0.90828679  0.70405806    -0.32500
C1831       C  0.25379046  0.88069453  0.69247476     0.36700
C1832       C  0.27157530  0.85340578  0.70825947    -0.05400
C1833       C  0.28147405  0.85434363  0.73553876    -0.32400
C1834       C  0.27408223  0.88190828  0.74712139     0.36700
H1835       H  0.23259338  0.92918142  0.69171476     0.17000
O1836       O  0.24493258  0.88114817  0.66598057    -0.59900
H1837       H  0.29441229  0.83327070  0.74792348     0.17000
O1838       O  0.28253397  0.88106904  0.77353981    -0.60000
H1839       H  0.30811697  0.88443356  0.78296290     0.44000
H1840       H  0.21940824  0.87728120  0.65679160     0.44000
C1841       C  0.25682342  0.65985109  0.72311821    -0.05100
C1842       C  0.22291817  0.65861789  0.72068777    -0.32500
C1843       C  0.21300092  0.63341592  0.73309411     0.36700
C1844       C  0.23699680  0.60869682  0.74792575    -0.05400
C1845       C  0.27084813  0.61004170  0.75029519    -0.32400
C1846       C  0.28076470  0.63507513  0.73801222     0.36700
H1847       H  0.20424690  0.67749364  0.70942030     0.17000
O1848       O  0.17983661  0.63312614  0.73058975    -0.59900
H1849       H  0.28941992  0.59075783  0.76085109     0.17000
O1850       O  0.31367952  0.63434494  0.74001553    -0.60000
H1851       H  0.31120693  0.62277807  0.72378915     0.44000
H1852       H  0.18100606  0.64710094  0.74543011     0.44000
C1853       C  0.35445348  0.75306363  0.62539025    -0.05100
C1854       C  0.35278123  0.73028189  0.60604155    -0.32500
C1855       C  0.37838923  0.73052737  0.59717885     0.36700
C1856       C  0.40594390  0.75388765  0.60779537    -0.05400
C1857       C  0.40535606  0.77869539  0.62506265    -0.32400
C1858       C  0.38004970  0.77825343  0.63401326     0.36700
H1859       H  0.33336998  0.71056802  0.59956418     0.17000
O1860       O  0.37822095  0.70578423  0.58042399    -0.59900
H1861       H  0.42585754  0.79736458  0.63296483     0.17000
O1862       O  0.38133103  0.80158173  0.65217458    -0.60000
H1863       H  0.40200567  0.79589710  0.66893588     0.44000
H1864       H  0.36547434  0.71521395  0.56239904     0.44000
C1865       C  0.22427467  0.74548959  0.63617635    -0.05100
C1866       C  0.19832157  0.75677639  0.64286646    -0.32500
C1867       C  0.16328339  0.75841158  0.62416771     0.36700
C1868       C  0.15289172  0.74838246  0.59780806    -0.05400
C1869       C  0.17808223  0.73520880  0.59123869    -0.32400
C1870       C  0.21308994  0.73250501  0.61027752     0.36700
H1871       H  0.20523482  0.76432297  0.66300597     0.17000
O1872       O  0.13958343  0.77063877  0.63185774    -0.59900
H1873       H  0.17034655  0.72557406  0.57147492     0.17000
O1874       O  0.23500076  0.71476825  0.60363018    -0.60000
H1875       H  0.23419287  0.69166062  0.60957428     0.44000
H1876       H  0.13378931  0.75162583  0.64034673     0.44000
C1877       C  0.42843040  0.74561401  0.77104706    -0.05100
C1878       C  0.41150232  0.71542714  0.75984228    -0.32500
C1879       C  0.38007483  0.71489923  0.73627987     0.36700
C1880       C  0.36383118  0.74513044  0.72448884    -0.05400
C1881       C  0.38371244  0.77464835  0.73355144    -0.32400
C1882       C  0.41530347  0.77519762  0.75676109     0.36700
H1883       H  0.42262735  0.69205951  0.76937067     0.17000
O1884       O  0.36628521  0.68494744  0.72412013    -0.59900
H1885       H  0.37519773  0.79754643  0.72255204     0.17000
O1886       O  0.43330254  0.80471863  0.76498590    -0.60000
H1887       H  0.42207675  0.81673175  0.77434195     0.44000
H1888       H  0.36664618  0.66980293  0.73804567     0.44000
C1889       C  0.60262574  0.75738463  0.83662757    -0.05100
C1890       C  0.60286247  0.78157491  0.81885778    -0.32500
C1891       C  0.62896365  0.78184892  0.81062280     0.36700
C1892       C  0.65538737  0.75775449  0.82023925    -0.05400
C1893       C  0.65684536  0.73542588  0.83972185    -0.32400
C1894       C  0.63066452  0.73508583  0.84795988     0.36700
H1895       H  0.58185611  0.79935929  0.81036372     0.17000
O1896       O  0.62792193  0.80492661  0.79242082    -0.59900
H1897       H  0.67664172  0.71636077  0.84681076     0.17000
O1898       O  0.63074487  0.71056888  0.86481065    -0.60000
H1899       H  0.64441354  0.71995290  0.88283322     0.44000
H1900       H  0.60723380  0.79898268  0.77564120     0.44000
C1901       C  0.48663712  0.89777438  0.89255297    -0.05100
C1902       C  0.52000051  0.88968370  0.89573702    -0.32500
C1903       C  0.52760755  0.85725406  0.89053841     0.36700
C1904       C  0.50145995  0.83225768  0.88155142    -0.05400
C1905       C  0.46841324  0.84025769  0.87903243    -0.32400
C1906       C  0.46089950  0.87250136  0.88437242     0.36700
H1907       H  0.54022798  0.90862433  0.90209189     0.17000
O1908       O  0.56014866  0.85085511  0.89296161    -0.59900
H1909       H  0.44779988  0.82168275  0.87202186     0.17000
O1910       O  0.42778123  0.87926569  0.88053580    -0.60000
H1911       H  0.41519576  0.88694992  0.86194525     0.44000
H1912       H  0.57447962  0.84518135  0.91186119     0.44000
C1913       C  0.50732757  0.65188142  0.87600415    -0.05100
C1914       C  0.49171538  0.64876175  0.89292843    -0.32500
C1915       C  0.48361350  0.61737589  0.89967191     0.36700
C1916       C  0.49116650  0.58796393  0.88957402    -0.05400
C1917       C  0.50792414  0.59101258  0.87338122    -0.32400
C1918       C  0.51616881  0.62246025  0.86672315     0.36700
H1919       H  0.48488367  0.67082955  0.90051952     0.17000
O1920       O  0.46820180  0.61589821  0.91616839    -0.59900
H1921       H  0.51434727  0.56891896  0.86554568     0.17000
O1922       O  0.53212096  0.62400708  0.85059092    -0.60000
H1923       H  0.55743095  0.62439341  0.86278142     0.44000
H1924       H  0.44292001  0.61835169  0.90442931     0.44000
C1925       C  0.35652943  0.99679549  0.85289387    -0.05100
C1926       C  0.33137571  0.98041491  0.85812765    -0.32500
C1927       C  0.29578949  0.98010941  0.83941618     0.36700
C1928       C  0.28460744  0.99764451  0.81524915    -0.05400
C1929       C  0.31052156  0.51229628  0.80983584    -0.32400
C1930       C  0.34560656  0.51270708  0.82836072     0.36700
H1931       H  0.33950633  0.96657047  0.87635196     0.17000
O1932       O  0.27328480  0.95955520  0.84367226    -0.59900
H1933       H  0.30365670  0.52318740  0.79065482     0.17000
O1934       O  0.36910234  0.52855894  0.82201543    -0.60000
H1935       H  0.36851269  0.55231202  0.82665632     0.44000
H1936       H  0.27520498  0.96594137  0.86122025     0.44000
loop_ 
_geom_bond_atom_site_label_1 
_geom_bond_atom_site_label_2 
_geom_bond_distance 
_geom_bond_site_symmetry_2 
_ccdc_geom_bond_type 
In1           O3   2.247       .  S
In1          O12   2.250   1_565  S
In1           O6   2.273   1_565  S
In1          O13   2.243       .  S
In1         O972   2.261       .  S
In1         O976   2.279       .  S
In1         O977   2.276       .  S
In1         O978   2.247       .  S
C2            O8   1.264       .  A
C2           O10   1.259       .  A
C2          C449   1.490       .  S
O3          C979   1.259       .  A
O4         In969   2.261       .  S
O4           C11   1.263       .  A
C5           O12   1.262       .  A
C5            O6   1.266       .  A
C5          C464   1.495       .  S
C7            O9   1.264       .  A
C7          O981   1.262       .  A
C7          C473   1.490       .  S
O8         In969   2.279       .  S
O9         In969   2.276       .  S
O10        In969   2.247       .  S
C11         O971   1.259       .  A
C11         C109   1.470       .  S
O13         C975   1.262       .  A
In14         O16   2.258       .  S
In14         O17   2.273       .  S
In14         O25   2.262       .  S
In14         O19   2.234       .  S
In14         O21   2.259       .  S
In14         O22   2.256       .  S
In14         O23   2.256       .  S
In14         O26   2.266       .  S
C15          O21   1.259       .  A
C15          O23   1.259       .  A
C15         C425   1.484       .  S
O16          C24   1.260       .  A
O17          C24   1.265       .  A
C18          O25   1.262       .  A
C18          O19   1.259       .  A
C18         C437   1.476       .  S
C20          O22   1.262       .  A
C20          O26   1.261       .  A
C20         C452   1.491       .  S
C24         C461   1.494       .  S
C27          C29   1.539       .  S
C27          C31   1.526       .  S
C27          C30   1.529       .  S
C27         C428   1.538       .  S
C28          C32   1.546       .  S
C28          C34   1.545       .  S
C28          C33   1.555       .  S
C28         C413   1.543       .  S
C29          C37   1.375       .  A
C29          C32   1.398       .  A
C30          C41   1.367       .  A
C30          C33   1.414       .  A
C31          C45   1.372       .  A
C31          C34   1.387       .  A
C32          C35   1.383       .  A
C33          C39   1.396       .  A
C34          C42   1.383       .  A
C35          N36   1.357       .  A
C35          H48   1.081       .  S
N36          C37   1.353       .  A
N36         C380   1.438       .  S
C37          H38   1.081       .  S
C39          N40   1.355       .  A
C39          H49   1.081       .  S
N40          C41   1.346       .  A
N40         C401   1.433       .  S
C41          H47   1.083       .  S
C42          N43   1.361       .  A
C42          H44   1.082       .  S
N43          C45   1.355       .  A
N43         C389   1.441       .  S
C45          H46   1.081       .  S
In50         O52   2.251       .  S
In50         O53   2.267   1_655  S
In50         O61   2.270       .  S
In50         O57   2.252   1_655  S
In50       O1023   2.231       .  S
In50       O1026   2.275       .  S
In50       O1027   2.238   1_655  S
In50       O1030   2.228   1_655  S
C51          O57   1.260       .  A
C51        O1027   1.259       .  A
C51         C356   1.480       .  S
O52          C60   1.260   1_655  A
O53          C60   1.263       .  A
C54          O61   1.264       .  A
C54        O1023   1.259       .  A
C54         C365   1.481       .  S
O55       In1018   2.231       .  S
O55        C1022   1.259       .  A
C56          O58   1.266   1_455  A
C56          O62   1.258       .  A
C56         C329   1.484       .  S
O58       In1018   2.275       .  S
O59       In1018   2.238   1_455  S
O59        C1019   1.259   1_545  A
C60         C341   1.491       .  S
O62       In1018   2.228   1_455  S
C63          C67   1.518       .  S
C63          C66   1.542       .  S
C63         C353   1.534       .  S
C63        C1033   1.537       .  S
C64          C70   1.534       .  S
C64          C69   1.556       .  S
C64         C476   1.542       .  S
C64        C1036   1.546       .  S
C65        C1031   1.537   1_545  S
C65          C73   1.376       .  A
C65          C68   1.394       .  A
C66          C77   1.373       .  A
C66          C69   1.422       .  A
C67          C81   1.371       .  A
C67          C70   1.379       .  A
C68        C1032   1.546   1_545  S
C68          C71   1.377       .  A
C69          C75   1.394       .  A
C70          C78   1.378       .  A
C71          N72   1.359       .  A
C71          H84   1.082       .  S
N72          C73   1.357       .  A
N72         C392   1.440       .  S
C73          H74   1.080       .  S
C75          N76   1.353       .  A
C75          H85   1.080       .  S
N76          C77   1.343       .  A
N76         C317   1.431       .  S
C77          H83   1.081       .  S
C78          N79   1.360       .  A
C78          H80   1.082       .  S
N79          C81   1.355       .  A
N79         C377   1.436       .  S
C81          H82   1.083       .  S
In86         O97   2.248       .  S
In86         O91   2.252       .  S
In86         O93   2.247       .  S
In86         O94   2.270       .  S
In86         O95   2.251       .  S
In86         O98   2.239       .  S
In86        O572   2.245   1_455  S
In86        O573   2.261       .  S
C87          O93   1.263       .  A
C87          O95   1.261       .  A
C87         C332   1.484       .  S
O88        In570   2.245   1_655  S
O88          C96   1.260   1_655  A
O89        In570   2.261       .  S
O89          C96   1.265       .  A
C90          O97   1.262       .  A
C90          O91   1.264       .  A
C90         C344   1.489       .  S
C92          O94   1.265       .  A
C92          O98   1.259       .  A
C92         C416   1.487       .  S
C96         C194   1.471   1_455  S
In99        O110   2.245   1_565  S
In99        O104   2.254   1_565  S
In99        O111   2.245       .  S
In99        O585   2.255       .  S
In99       O1554   2.252       .  S
In99       O1074   2.256       .  S
In99       O1075   2.280       .  S
In99       O1076   2.259       .  S
C100        O106   1.261       .  A
C100        O108   1.260       .  A
C100        C281   1.486       .  S
O101       In583   2.255       .  S
O101       C1077   1.261       .  A
O102      In1551   2.252       .  S
O102        C109   1.263       .  A
C103        O110   1.261       .  A
C103        O104   1.262       .  A
C103        C296   1.484       .  S
C105        O107   1.263       .  A
C105       O1079   1.259       .  A
C105        C308   1.490       .  S
O106      In1067   2.256       .  S
O107      In1067   2.280       .  S
O108      In1067   2.259       .  S
C109       O1069   1.261       .  A
O111       C1073   1.259       .  A
In112       O114   2.259       .  S
In112       O115   2.262   1_455  S
In112       O123   2.255       .  S
In112       O119   2.258   1_455  S
In112      O1085   2.226       .  S
In112      O1088   2.270       .  S
In112      O1089   2.240   1_455  S
In112      O1092   2.235       .  S
C113        O121   1.257       .  A
C113       O1087   1.257       .  A
C113       C1240   1.476       .  S
O114        C122   1.258       .  A
O115        C122   1.259   1_655  A
C116        O123   1.264       .  A
C116       O1085   1.263       .  A
C116        C320   1.477       .  S
O117      In1080   2.226       .  S
O117       C1084   1.263       .  A
C118        O120   1.264       .  A
C118        O124   1.259       .  A
C118        C245   1.483       .  S
O119       C1081   1.257       .  A
O120      In1080   2.270   1_545  S
O121      In1080   2.240   1_655  S
C122        C257   1.484       .  S
O124      In1080   2.235   1_545  S
C125        C129   1.516       .  S
C125        C128   1.544       .  S
C125        C269   1.537       .  S
C125       C1095   1.528       .  S
C126        C132   1.536       .  S
C126        C131   1.565       .  S
C126        C305   1.542       .  S
C126       C1098   1.543       .  S
C127       C1093   1.528   1_545  S
C127        C135   1.369       .  A
C127        C130   1.390       .  A
C128        C139   1.374       .  A
C128        C131   1.428       .  A
C129        C143   1.369       .  A
C129        C132   1.381       .  A
C130       C1094   1.543   1_545  S
C130        C133   1.382       .  A
C131        C137   1.397       .  A
C132        C140   1.380       .  A
C133        N134   1.360       .  A
C133        H146   1.082       .  S
N134        C135   1.353       .  A
N134        C233   1.436       .  S
C135        H136   1.082       .  S
C137        N138   1.355       .  A
C137        H147   1.081       .  S
N138        C139   1.345       .  A
N138        C368   1.438       .  S
C139        H145   1.078       .  S
C140        N141   1.358       .  A
C140        H142   1.082       .  S
N141        C143   1.350       .  A
N141        C224   1.429       .  S
C143        H144   1.082       .  S
In148       O150   2.241       .  S
In148       O151   2.252       .  S
In148       O159   2.275       .  S
In148       O153   2.213       .  S
In148       O155   2.245       .  S
In148       O156   2.278       .  S
In148       O157   2.246       .  S
In148       O160   2.223       .  S
C149        O155   1.259       .  A
C149        O157   1.260       .  A
C149        C212   1.479       .  S
O150        C158   1.261       .  A
O151        C158   1.264       .  A
C152        O159   1.263       .  A
C152        O153   1.257       .  A
C152        C404   1.477       .  S
C154        O156   1.265       .  A
C154        O160   1.257       .  A
C154        C284   1.484       .  S
C158        C293   1.485       .  S
C161        C163   1.532       .  S
C161        C165   1.514       .  S
C161        C164   1.536       .  S
C161        C209   1.535       .  S
C162        C166   1.543       .  S
C162        C168   1.539       .  S
C162        C167   1.565       .  S
C162        C197   1.544       .  S
C163        C171   1.366       .  A
C163        C166   1.393       .  A
C164        C175   1.372       .  A
C164        C167   1.426       .  A
C165        C179   1.370       .  A
C165        C168   1.381       .  A
C166        C169   1.381       .  A
C167        C173   1.398       .  A
C168        C176   1.381       .  A
C169        N170   1.360       .  A
C169        H182   1.081       .  S
N170        C171   1.351       .  A
N170        C221   1.434       .  S
C171        H172   1.081       .  S
C173        N174   1.354       .  A
C173        H183   1.080       .  S
N174        C175   1.343       .  A
N174        C440   1.435       .  S
C175        H181   1.081       .  S
C176        N177   1.360       .  A
C176        H178   1.082       .  S
N177        C179   1.353       .  A
N177        C236   1.433       .  S
C179        H180   1.082       .  S
In184       O186   2.251   1_655  S
In184       O187   2.252       .  S
In184       O195   2.239       .  S
In184       O189   2.250       .  S
In184       O191   2.255       .  S
In184       O192   2.285       .  S
In184       O193   2.254       .  S
In184       O196   2.241       .  S
C185        O191   1.262       .  A
C185        O193   1.261       .  A
C185        C248   1.487       .  S
O186        C194   1.260   1_455  A
O187        C194   1.265       .  A
C188        O195   1.262       .  A
C188        O189   1.264       .  A
C188        C260   1.485       .  S
C190        O192   1.265       .  A
C190        O196   1.259       .  A
C190        C200   1.494       .  S
C197        C198   1.412       .  A
C197        C202   1.418       .  A
C198        C199   1.409       .  A
C198        H203   1.076       .  S
C199        C200   1.410       .  A
C199        O204   1.371       .  S
C200        C201   1.403       .  A
C201        C202   1.403       .  A
C201        H205   1.084       .  S
C202        O206   1.375       .  S
O204        H208   0.992       .  S
O206        H207   0.992       .  S
C209        C210   1.410       .  A
C209        C214   1.415       .  A
C210        C211   1.396       .  A
C210        H215   1.082       .  S
C211        C212   1.406       .  A
C211        O216   1.372       .  S
C212        C213   1.403       .  A
C213        C214   1.405       .  A
C213        H217   1.083       .  S
C214        O218   1.374       .  S
O216        H220   0.992       .  S
O218        H219   0.992       .  S
C221        C222   1.400       .  A
C221        C226   1.415       .  A
C222        C223   1.400       .  A
C222        H227   1.083       .  S
C223        C224   1.411       .  A
C223        O228   1.372       .  S
C224        C225   1.395       .  A
C225        C226   1.391       .  A
C225        H229   1.083       .  S
C226        O230   1.371       .  S
O228        H232   0.992       .  S
O230        H231   0.992       .  S
C233        C234   1.401       .  A
C233        C238   1.411       .  A
C234        C235   1.402       .  A
C234        H239   1.083       .  S
C235        C236   1.410       .  A
C235        O240   1.372       .  S
C236        C237   1.397       .  A
C237        C238   1.394       .  A
C237        H241   1.083       .  S
C238        O242   1.369       .  S
O240        H244   0.992       .  S
O242        H243   0.992       .  S
C245        C246   1.404       .  A
C245        C250   1.410   1_455  A
C246        C247   1.400       .  A
C246        H251   1.084       .  S
C247        C248   1.410   1_455  A
C247        O252   1.371       .  S
C248        C249   1.408       .  A
C249        C250   1.405       .  A
C249        H253   1.083       .  S
C250        O254   1.372       .  S
O252        H256   0.992       .  S
O254        H255   0.992       .  S
C257        C258   1.406       .  A
C257        C262   1.409   1_455  A
C258        C259   1.402       .  A
C258        H263   1.083       .  S
C259        C260   1.410   1_455  A
C259        O264   1.371       .  S
C260        C261   1.406       .  A
C261        C262   1.402       .  A
C261        H265   1.083       .  S
C262        O266   1.371       .  S
O264        H268   0.992       .  S
O266        H267   0.992       .  S
C269        C270   1.408       .  A
C269       C1242   1.420       .  A
C270        C271   1.401       .  A
C270        H275   1.075       .  S
C271        C272   1.406       .  A
C271        O276   1.371       .  S
C272       C1081   1.476       .  S
C272       C1241   1.397       .  A
C273        C274   1.400       .  A
C273       C1240   1.397       .  A
C273        H277   1.084   1_565  S
C274       C1237   1.420       .  A
C274        O278   1.377   1_565  S
O276        H280   0.992       .  S
O278        H279   0.990       .  S
C281        C282   1.403       .  A
C281        C286   1.412       .  A
C282        C283   1.400       .  A
C282        H287   1.084       .  S
C283        C284   1.412       .  A
C283        O288   1.372       .  S
C284        C285   1.404       .  A
C285        C286   1.406       .  A
C285        H289   1.083       .  S
C286        O290   1.371       .  S
O288        H292   0.992       .  S
O290        H291   0.992       .  S
C293        C294   1.407       .  A
C293        C298   1.410       .  A
C294        C295   1.402       .  A
C294        H299   1.083       .  S
C295        C296   1.411       .  A
C295        O300   1.372       .  S
C296        C297   1.405       .  A
C297        C298   1.401       .  A
C297        H301   1.083       .  S
C298        O302   1.371       .  S
O300        H304   0.992       .  S
O302        H303   0.992       .  S
C305        C310   1.419       .  A
C305       C1274   1.410       .  A
C306        C307   1.410       .  A
C306       C1273   1.410       .  A
C306        H311   1.078       .  S
C307       C1276   1.410       .  A
C307        O312   1.371       .  S
C308        C309   1.401       .  A
C308       C1275   1.410       .  A
C309        C310   1.400       .  A
C309        H313   1.084       .  S
C310        O314   1.374       .  S
O312        H316   0.992       .  S
O314        H315   0.992       .  S
C317        C322   1.404       .  A
C317       C1286   1.401       .  A
C318        C319   1.406       .  A
C318       C1285   1.401   1_545  A
C318        H323   1.083       .  S
C319       C1288   1.412   1_545  A
C319        O324   1.371       .  S
C320        C321   1.402       .  A
C320       C1287   1.412       .  A
C321        C322   1.395       .  A
C321        H325   1.084       .  S
C322        O326   1.372       .  S
O324        H328   0.992       .  S
O326        H327   0.992       .  S
C329        C330   1.404       .  A
C329        C334   1.412       .  A
C330        C331   1.405       .  A
C330        H335   1.083       .  S
C331        C332   1.412       .  A
C331        O336   1.372       .  S
C332        C333   1.402       .  A
C333        C334   1.400       .  A
C333        H337   1.084       .  S
C334        O338   1.372   1_455  S
O336        H340   0.992       .  S
O338        H339   0.992   1_655  S
C341        C342   1.406       .  A
C341        C346   1.413   1_455  A
C342        C343   1.404       .  A
C342        H347   1.083       .  S
C343        C344   1.413       .  A
C343        O348   1.371       .  S
C344        C345   1.405       .  A
C345        C346   1.403   1_455  A
C345        H349   1.083   1_455  S
C346        O350   1.371       .  S
O348        H836   0.992       .  S
O350        H351   0.992       .  S
H352        O832   0.992       .  S
C353        C354   1.410       .  A
C353       C1326   1.416       .  A
C354        C355   1.400       .  A
C354        H359   1.078       .  S
C355        C356   1.407       .  A
C355        O360   1.372       .  S
C356       C1325   1.401       .  A
C357        C358   1.401       .  A
C357       C1324   1.401   1_545  A
C357        H361   1.083       .  S
C358       C1321   1.416   1_545  A
C358        O362   1.376       .  S
O360        H364   0.992       .  S
O362        H363   0.992       .  S
C365        C370   1.410       .  A
C365       C1334   1.404       .  A
C366        C367   1.400       .  A
C366       C1333   1.404       .  A
C366        H371   1.084       .  S
C367       C1336   1.408       .  A
C367        O372   1.374       .  S
C368        C369   1.403       .  A
C368       C1335   1.408       .  A
C369        C370   1.405       .  A
C369        H373   1.083       .  S
C370        O374   1.371       .  S
O372        H376   0.992       .  S
O374        H375   0.992       .  S
C377        C378   1.405       .  A
C377        C382   1.406       .  A
C378        C379   1.400       .  A
C378        H383   1.083       .  S
C379        C380   1.407       .  A
C379        O384   1.371       .  S
C380        C381   1.405       .  A
C381        C382   1.396       .  A
C381        H385   1.082       .  S
C382        O386   1.371       .  S
O384        H388   0.992       .  S
O386        H387   0.991       .  S
C389        C390   1.404       .  A
C389        C394   1.411       .  A
C390        C391   1.403       .  A
C390        H395   1.083       .  S
C391        C392   1.410       .  A
C391        O396   1.370       .  S
C392        C393   1.403       .  A
C393        C394   1.394       .  A
C393        H397   1.083       .  S
C394        O398   1.371       .  S
O396        H400   0.992       .  S
O398        H399   0.991       .  S
C401        C402   1.403       .  A
C401        C406   1.405       .  A
C402        C403   1.404       .  A
C402        H407   1.083       .  S
C403        C404   1.410       .  A
C403        O408   1.371       .  S
C404        C405   1.404       .  A
C405        C406   1.395       .  A
C405        H409   1.084       .  S
C406        O410   1.373       .  S
O408        H412   0.992       .  S
O410        H411   0.992       .  S
C413        C414   1.410       .  A
C413        C418   1.418       .  A
C414        C415   1.399       .  A
C414        H419   1.083       .  S
C415        C416   1.408       .  A
C415        O420   1.372       .  S
C416        C417   1.403       .  A
C417        C418   1.407       .  A
C417        H421   1.083       .  S
C418        O422   1.368       .  S
O420        H424   0.992       .  S
O422        H423   0.993       .  S
C425        C426   1.404       .  A
C425        C430   1.408       .  A
C426        C427   1.406       .  A
C426        H431   1.083       .  S
C427        C428   1.413       .  A
C427        O432   1.375       .  S
C428        C429   1.410       .  A
C429        C430   1.400       .  A
C429        H433   1.080       .  S
C430        O434   1.372       .  S
O432        H436   0.991       .  S
O434        H435   0.991       .  S
C437        C438   1.403       .  A
C437        C442   1.409       .  A
C438        C439   1.399       .  A
C438        H443   1.084       .  S
C439        C440   1.408       .  A
C439        O444   1.373       .  S
C440        C441   1.402       .  A
C441        C442   1.403       .  A
C441        H445   1.083       .  S
C442        O446   1.371       .  S
O444        H448   0.992       .  S
O446        H447   0.991       .  S
C449        C450   1.406       .  A
C449        C454   1.412       .  A
C450        C451   1.407       .  A
C450        H455   1.083       .  S
C451        C452   1.414       .  A
C451        O456   1.371       .  S
C452        C453   1.404       .  A
C453        C454   1.402       .  A
C453        H457   1.083       .  S
C454        O458   1.372       .  S
O456        H460   0.992       .  S
O458        H459   0.992       .  S
C461        C462   1.404       .  A
C461        C466   1.415       .  A
C462        C463   1.404       .  A
C462        H467   1.083       .  S
C463        C464   1.414       .  A
C463        O468   1.371       .  S
C464        C465   1.406       .  A
C465        C466   1.407       .  A
C465        H469   1.083       .  S
C466        O470   1.371       .  S
O468        H472   0.992       .  S
O470        H471   0.992       .  S
C473        C474   1.406       .  A
C473       C1446   1.405       .  A
C474        C475   1.415       .  A
C474        H479   1.084       .  S
C475        C476   1.418       .  A
C475        O480   1.372       .  S
C476       C1445   1.410       .  A
C477        C478   1.396       .  A
C477       C1444   1.410   1_545  A
C477        H481   1.082       .  S
C478       C1441   1.405   1_545  A
C478        O482   1.372       .  S
O480        H484   0.993       .  S
O482        H483   0.992       .  S
In485       O487   2.247       .  S
In485      O1456   2.261       .  S
In485       O496   2.250   1_565  S
In485       O490   2.273   1_565  S
In485      O1460   2.279       .  S
In485      O1461   2.276       .  S
In485      O1462   2.247       .  S
In485       O497   2.243       .  S
C486        O492   1.264       .  A
C486        O494   1.259       .  A
C486        C933   1.490       .  S
O487       C1463   1.259       .  A
O488      In1453   2.261       .  S
O488        C495   1.263       .  A
C489        O496   1.262       .  A
C489        O490   1.266       .  A
C489        C948   1.495       .  S
C491        O493   1.264       .  A
C491       O1465   1.262       .  A
C491        C957   1.490       .  S
O492      In1453   2.279       .  S
O493      In1453   2.276       .  S
O494      In1453   2.247       .  S
C495       O1455   1.259       .  A
C495        C593   1.470       .  S
O497       C1459   1.262       .  A
In498       O500   2.258       .  S
In498       O501   2.273       .  S
In498       O509   2.262       .  S
In498       O503   2.234       .  S
In498       O505   2.259       .  S
In498       O506   2.256       .  S
In498       O507   2.256       .  S
In498       O510   2.266       .  S
C499        O505   1.259       .  A
C499        O507   1.259       .  A
C499        C909   1.484       .  S
O500        C508   1.260       .  A
O501        C508   1.265       .  A
C502        O509   1.262       .  A
C502        O503   1.259       .  A
C502        C921   1.476       .  S
C504        O506   1.262       .  A
C504        O510   1.261       .  A
C504        C936   1.491       .  S
C508        C945   1.494       .  S
C511        C513   1.539       .  S
C511        C515   1.526       .  S
C511        C514   1.529       .  S
C511        C912   1.538       .  S
C512        C516   1.546       .  S
C512        C518   1.545       .  S
C512        C517   1.555       .  S
C512        C897   1.543       .  S
C513        C521   1.375       .  A
C513        C516   1.398       .  A
C514        C525   1.367       .  A
C514        C517   1.414       .  A
C515        C529   1.372       .  A
C515        C518   1.387       .  A
C516        C519   1.383       .  A
C517        C523   1.396       .  A
C518        C526   1.383       .  A
C519        N520   1.357       .  A
C519        H532   1.081       .  S
N520        C521   1.353       .  A
N520        C864   1.438       .  S
C521        H522   1.081       .  S
C523        N524   1.355       .  A
C523        H533   1.081       .  S
N524        C525   1.346       .  A
N524        C885   1.433       .  S
C525        H531   1.083       .  S
C526        N527   1.361       .  A
C526        H528   1.082       .  S
N527        C529   1.355       .  A
N527        C873   1.441       .  S
C529        H530   1.081       .  S
In534       O536   2.251       .  S
In534       O537   2.267   1_655  S
In534       O545   2.270       .  S
In534      O1507   2.231       .  S
In534       O541   2.252   1_655  S
In534      O1510   2.275       .  S
In534      O1511   2.238   1_655  S
In534      O1514   2.228   1_655  S
C535        O541   1.260       .  A
C535       O1511   1.259       .  A
C535        C840   1.480       .  S
O536        C544   1.260   1_655  A
O537        C544   1.263       .  A
C538        O545   1.264       .  A
C538       O1507   1.259       .  A
C538        C849   1.481       .  S
O539      In1502   2.231       .  S
O539       C1506   1.259       .  A
C540        O542   1.266   1_455  A
C540        O546   1.258       .  A
C540        C813   1.484       .  S
O542      In1502   2.275       .  S
O543      In1502   2.238   1_455  S
O543       C1503   1.259   1_545  A
C544        C825   1.491       .  S
O546      In1502   2.228   1_455  S
C547       C1517   1.537       .  S
C547        C551   1.518       .  S
C547        C550   1.542       .  S
C547        C837   1.534       .  S
C548       C1520   1.546       .  S
C548        C554   1.534       .  S
C548        C553   1.556       .  S
C548        C960   1.542       .  S
C549       C1515   1.537   1_545  S
C549        C557   1.376       .  A
C549        C552   1.394       .  A
C550        C561   1.373       .  A
C550        C553   1.422       .  A
C551        C565   1.371       .  A
C551        C554   1.379       .  A
C552       C1516   1.546   1_545  S
C552        C555   1.377       .  A
C553        C559   1.394       .  A
C554        C562   1.378       .  A
C555        N556   1.359       .  A
C555        H568   1.082       .  S
N556        C557   1.357       .  A
N556        C876   1.440       .  S
C557        H558   1.080       .  S
C559        N560   1.353       .  A
C559        H569   1.080       .  S
N560        C561   1.343       .  A
N560        C801   1.431       .  S
C561        H567   1.081       .  S
C562        N563   1.360       .  A
C562        H564   1.082       .  S
N563        C565   1.355       .  A
N563        C861   1.436       .  S
C565        H566   1.083       .  S
In570       O581   2.248       .  S
In570       O575   2.252       .  S
In570       O577   2.247       .  S
In570       O578   2.270       .  S
In570       O579   2.251       .  S
In570       O582   2.239       .  S
C571        O577   1.263       .  A
C571        O579   1.261       .  A
C571        C816   1.484       .  S
O572        C580   1.260   1_654  A
O573        C580   1.265   1_554  A
C574        O581   1.262       .  A
C574        O575   1.264       .  A
C574        C828   1.489       .  S
C576        O578   1.265       .  A
C576        O582   1.259       .  A
C576        C900   1.487       .  S
C580        C678   1.471   1_455  S
In583      O1070   2.252       .  S
In583       O594   2.245   1_565  S
In583       O588   2.254   1_565  S
In583      O1558   2.256       .  S
In583      O1559   2.280       .  S
In583      O1560   2.259       .  S
In583       O595   2.245       .  S
C584        O590   1.261       .  A
C584        O592   1.260       .  A
C584        C765   1.486       .  S
O585       C1561   1.261   1_554  A
O586      In1067   2.252       .  S
O586        C593   1.263   1_554  A
C587        O594   1.261       .  A
C587        O588   1.262       .  A
C587        C780   1.484       .  S
C589        O591   1.263       .  A
C589       O1563   1.259       .  A
C589        C792   1.490       .  S
O590      In1551   2.256       .  S
O591      In1551   2.280       .  S
O592      In1551   2.259       .  S
C593       O1553   1.261   1_556  A
O595       C1557   1.259       .  A
In596       O598   2.259       .  S
In596       O599   2.262   1_455  S
In596       O607   2.255       .  S
In596      O1569   2.226       .  S
In596       O603   2.258   1_455  S
In596      O1572   2.270       .  S
In596      O1573   2.240   1_455  S
In596      O1576   2.235       .  S
C597       O1571   1.257       .  A
C597        O605   1.257       .  A
C597       C1724   1.476       .  S
O598        C606   1.258       .  A
O599        C606   1.259   1_655  A
C600        O607   1.264       .  A
C600       O1569   1.263       .  A
C600        C804   1.477       .  S
O601      In1564   2.226       .  S
O601       C1568   1.263       .  A
C602        O604   1.264       .  A
C602        O608   1.259       .  A
C602        C729   1.483       .  S
O603       C1565   1.257       .  A
O604      In1564   2.270   1_545  S
O605      In1564   2.240   1_655  S
C606        C741   1.484       .  S
O608      In1564   2.235   1_545  S
C609       C1579   1.528       .  S
C609        C613   1.516       .  S
C609        C612   1.544       .  S
C609        C753   1.537       .  S
C610       C1582   1.543       .  S
C610        C616   1.536       .  S
C610        C615   1.565       .  S
C610        C789   1.542       .  S
C611       C1577   1.528   1_545  S
C611        C619   1.369       .  A
C611        C614   1.390       .  A
C612        C623   1.374       .  A
C612        C615   1.428       .  A
C613        C627   1.369       .  A
C613        C616   1.381       .  A
C614       C1578   1.543   1_545  S
C614        C617   1.382       .  A
C615        C621   1.397       .  A
C616        C624   1.380       .  A
C617        N618   1.360       .  A
C617        H630   1.082       .  S
N618        C619   1.353       .  A
N618        C717   1.436       .  S
C619        H620   1.082       .  S
C621        N622   1.355       .  A
C621        H631   1.081       .  S
N622        C623   1.345       .  A
N622        C852   1.438       .  S
C623        H629   1.078       .  S
C624        N625   1.358       .  A
C624        H626   1.082       .  S
N625        C627   1.350       .  A
N625        C708   1.429       .  S
C627        H628   1.082       .  S
In632       O634   2.241       .  S
In632       O635   2.252       .  S
In632       O643   2.275       .  S
In632       O637   2.213       .  S
In632       O639   2.245       .  S
In632       O640   2.278       .  S
In632       O641   2.246       .  S
In632       O644   2.223       .  S
C633        O639   1.259       .  A
C633        O641   1.260       .  A
C633        C696   1.479       .  S
O634        C642   1.261       .  A
O635        C642   1.264       .  A
C636        O643   1.263       .  A
C636        O637   1.257       .  A
C636        C888   1.477       .  S
C638        O640   1.265       .  A
C638        O644   1.257       .  A
C638        C768   1.484       .  S
C642        C777   1.485       .  S
C645        C647   1.532       .  S
C645        C649   1.514       .  S
C645        C648   1.536       .  S
C645        C693   1.535       .  S
C646        C650   1.543       .  S
C646        C652   1.539       .  S
C646        C651   1.565       .  S
C646        C681   1.544       .  S
C647        C655   1.366       .  A
C647        C650   1.393       .  A
C648        C659   1.372       .  A
C648        C651   1.426       .  A
C649        C663   1.370       .  A
C649        C652   1.381       .  A
C650        C653   1.381       .  A
C651        C657   1.398       .  A
C652        C660   1.381       .  A
C653        N654   1.360       .  A
C653        H666   1.081       .  S
N654        C655   1.351       .  A
N654        C705   1.434       .  S
C655        H656   1.081       .  S
C657        N658   1.354       .  A
C657        H667   1.080       .  S
N658        C659   1.343       .  A
N658        C924   1.435       .  S
C659        H665   1.081       .  S
C660        N661   1.360       .  A
C660        H662   1.082       .  S
N661        C663   1.353       .  A
N661        C720   1.433       .  S
C663        H664   1.082       .  S
In668       O670   2.251   1_655  S
In668       O671   2.252       .  S
In668       O679   2.239       .  S
In668       O673   2.250       .  S
In668       O675   2.255       .  S
In668       O676   2.285       .  S
In668       O677   2.254       .  S
In668       O680   2.241       .  S
C669        O675   1.262       .  A
C669        O677   1.261       .  A
C669        C732   1.487       .  S
O670        C678   1.260   1_455  A
O671        C678   1.265       .  A
C672        O679   1.262       .  A
C672        O673   1.264       .  A
C672        C744   1.485       .  S
C674        O676   1.265       .  A
C674        O680   1.259       .  A
C674        C684   1.494       .  S
C681        C682   1.412       .  A
C681        C686   1.418       .  A
C682        C683   1.409       .  A
C682        H687   1.076       .  S
C683        C684   1.410       .  A
C683        O688   1.371       .  S
C684        C685   1.403       .  A
C685        C686   1.403       .  A
C685        H689   1.084       .  S
C686        O690   1.375       .  S
O688        H692   0.992       .  S
O690        H691   0.992       .  S
C693        C694   1.410       .  A
C693        C698   1.415       .  A
C694        C695   1.396       .  A
C694        H699   1.082       .  S
C695        C696   1.406       .  A
C695        O700   1.372       .  S
C696        C697   1.403       .  A
C697        C698   1.405       .  A
C697        H701   1.083       .  S
C698        O702   1.374       .  S
O700        H704   0.992       .  S
O702        H703   0.992       .  S
C705        C706   1.400       .  A
C705        C710   1.415       .  A
C706        C707   1.400       .  A
C706        H711   1.083       .  S
C707        C708   1.411       .  A
C707        O712   1.372       .  S
C708        C709   1.395       .  A
C709        C710   1.391       .  A
C709        H713   1.083       .  S
C710        O714   1.371       .  S
O712        H716   0.992       .  S
O714        H715   0.992       .  S
C717        C718   1.401       .  A
C717        C722   1.411       .  A
C718        C719   1.402       .  A
C718        H723   1.083       .  S
C719        C720   1.410       .  A
C719        O724   1.372       .  S
C720        C721   1.397       .  A
C721        C722   1.394       .  A
C721        H725   1.083       .  S
C722        O726   1.369       .  S
O724        H728   0.992       .  S
O726        H727   0.992       .  S
C729        C730   1.404       .  A
C729        C734   1.410   1_455  A
C730        C731   1.400       .  A
C730        H735   1.084       .  S
C731        C732   1.410   1_455  A
C731        O736   1.371       .  S
C732        C733   1.408       .  A
C733        C734   1.405       .  A
C733        H737   1.083       .  S
C734        O738   1.372       .  S
O736        H740   0.992       .  S
O738        H739   0.992       .  S
C741        C742   1.406       .  A
C741        C746   1.409   1_455  A
C742        C743   1.402       .  A
C742        H747   1.083       .  S
C743        C744   1.410   1_455  A
C743        O748   1.371       .  S
C744        C745   1.406       .  A
C745        C746   1.402       .  A
C745        H749   1.083       .  S
C746        O750   1.371       .  S
O748        H752   0.992       .  S
O750        H751   0.992       .  S
C753        C754   1.408       .  A
C753       C1726   1.420       .  A
C754        C755   1.401       .  A
C754        H759   1.075       .  S
C755        C756   1.406       .  A
C755        O760   1.371       .  S
C756       C1565   1.476       .  S
C756       C1725   1.397       .  A
C757       C1724   1.397       .  A
C757        C758   1.400       .  A
C757        H761   1.084   1_565  S
C758       C1721   1.420       .  A
C758        O762   1.377   1_565  S
O760        H764   0.992       .  S
O762        H763   0.990       .  S
C765        C766   1.403       .  A
C765        C770   1.412       .  A
C766        C767   1.400       .  A
C766        H771   1.084       .  S
C767        C768   1.412       .  A
C767        O772   1.372       .  S
C768        C769   1.404       .  A
C769        C770   1.406       .  A
C769        H773   1.083       .  S
C770        O774   1.371       .  S
O772        H776   0.992       .  S
O774        H775   0.992       .  S
C777        C778   1.407       .  A
C777        C782   1.410       .  A
C778        C779   1.402       .  A
C778        H783   1.083       .  S
C779        C780   1.411       .  A
C779        O784   1.372       .  S
C780        C781   1.405       .  A
C781        C782   1.401       .  A
C781        H785   1.083       .  S
C782        O786   1.371       .  S
O784        H788   0.992       .  S
O786        H787   0.992       .  S
C789       C1758   1.410       .  A
C789        C794   1.419       .  A
C790       C1757   1.410       .  A
C790        C791   1.410       .  A
C790        H795   1.078       .  S
C791       C1760   1.410       .  A
C791        O796   1.371       .  S
C792       C1759   1.410       .  A
C792        C793   1.401       .  A
C793        C794   1.400       .  A
C793        H797   1.084       .  S
C794        O798   1.374       .  S
O796        H800   0.992       .  S
O798        H799   0.992       .  S
C801       C1770   1.401       .  A
C801        C806   1.404       .  A
C802       C1769   1.401   1_545  A
C802        C803   1.406       .  A
C802        H807   1.083       .  S
C803       C1772   1.412   1_545  A
C803        O808   1.371       .  S
C804       C1771   1.412       .  A
C804        C805   1.402       .  A
C805        C806   1.395       .  A
C805        H809   1.084       .  S
C806        O810   1.372       .  S
O808        H812   0.992       .  S
O810        H811   0.992       .  S
C813        C814   1.404       .  A
C813        C818   1.412       .  A
C814        C815   1.405       .  A
C814        H819   1.083       .  S
C815        C816   1.412       .  A
C815        O820   1.372       .  S
C816        C817   1.402       .  A
C817        C818   1.400       .  A
C817        H821   1.084       .  S
C818        O822   1.372   1_455  S
O820        H824   0.992       .  S
O822        H823   0.992   1_655  S
C825        C826   1.406       .  A
C825        C830   1.413   1_455  A
C826        C827   1.404       .  A
C826        H831   1.083       .  S
C827        C828   1.413       .  A
C827        O832   1.371       .  S
C828        C829   1.405       .  A
C829        C830   1.403   1_455  A
C829        H833   1.083   1_455  S
C830        O834   1.371       .  S
O834        H835   0.992       .  S
C837        C838   1.410       .  A
C837       C1810   1.416       .  A
C838        C839   1.400       .  A
C838        H843   1.078       .  S
C839        C840   1.407       .  A
C839        O844   1.372       .  S
C840       C1809   1.401       .  A
C841       C1808   1.401   1_545  A
C841        C842   1.401       .  A
C841        H845   1.083       .  S
C842       C1805   1.416   1_545  A
C842        O846   1.376       .  S
O844        H848   0.992       .  S
O846        H847   0.992       .  S
C849       C1818   1.404       .  A
C849        C854   1.410       .  A
C850       C1817   1.404       .  A
C850        C851   1.400       .  A
C850        H855   1.084       .  S
C851       C1820   1.408       .  A
C851        O856   1.374       .  S
C852       C1819   1.408       .  A
C852        C853   1.403       .  A
C853        C854   1.405       .  A
C853        H857   1.083       .  S
C854        O858   1.371       .  S
O856        H860   0.992       .  S
O858        H859   0.992       .  S
C861        C862   1.405       .  A
C861        C866   1.406       .  A
C862        C863   1.400       .  A
C862        H867   1.083       .  S
C863        C864   1.407       .  A
C863        O868   1.371       .  S
C864        C865   1.405       .  A
C865        C866   1.396       .  A
C865        H869   1.082       .  S
C866        O870   1.371       .  S
O868        H872   0.992       .  S
O870        H871   0.991       .  S
C873        C874   1.404       .  A
C873        C878   1.411       .  A
C874        C875   1.403       .  A
C874        H879   1.083       .  S
C875        C876   1.410       .  A
C875        O880   1.370       .  S
C876        C877   1.403       .  A
C877        C878   1.394       .  A
C877        H881   1.083       .  S
C878        O882   1.371       .  S
O880        H884   0.992       .  S
O882        H883   0.991       .  S
C885        C886   1.403       .  A
C885        C890   1.405       .  A
C886        C887   1.404       .  A
C886        H891   1.083       .  S
C887        C888   1.410       .  A
C887        O892   1.371       .  S
C888        C889   1.404       .  A
C889        C890   1.395       .  A
C889        H893   1.084       .  S
C890        O894   1.373       .  S
O892        H896   0.992       .  S
O894        H895   0.992       .  S
C897        C898   1.410       .  A
C897        C902   1.418       .  A
C898        C899   1.399       .  A
C898        H903   1.083       .  S
C899        C900   1.408       .  A
C899        O904   1.372       .  S
C900        C901   1.403       .  A
C901        C902   1.407       .  A
C901        H905   1.083       .  S
C902        O906   1.368       .  S
O904        H908   0.992       .  S
O906        H907   0.993       .  S
C909        C910   1.404       .  A
C909        C914   1.408       .  A
C910        C911   1.406       .  A
C910        H915   1.083       .  S
C911        C912   1.413       .  A
C911        O916   1.375       .  S
C912        C913   1.410       .  A
C913        C914   1.400       .  A
C913        H917   1.080       .  S
C914        O918   1.372       .  S
O916        H920   0.991       .  S
O918        H919   0.991       .  S
C921        C922   1.403       .  A
C921        C926   1.409       .  A
C922        C923   1.399       .  A
C922        H927   1.084       .  S
C923        C924   1.408       .  A
C923        O928   1.373       .  S
C924        C925   1.402       .  A
C925        C926   1.403       .  A
C925        H929   1.083       .  S
C926        O930   1.371       .  S
O928        H932   0.992       .  S
O930        H931   0.991       .  S
C933        C934   1.406       .  A
C933        C938   1.412       .  A
C934        C935   1.407       .  A
C934        H939   1.083       .  S
C935        C936   1.414       .  A
C935        O940   1.371       .  S
C936        C937   1.404       .  A
C937        C938   1.402       .  A
C937        H941   1.083       .  S
C938        O942   1.372       .  S
O940        H944   0.992       .  S
O942        H943   0.992       .  S
C945        C946   1.404       .  A
C945        C950   1.415       .  A
C946        C947   1.404       .  A
C946        H951   1.083       .  S
C947        C948   1.414       .  A
C947        O952   1.371       .  S
C948        C949   1.406       .  A
C949        C950   1.407       .  A
C949        H953   1.083       .  S
C950        O954   1.371       .  S
O952        H956   0.992       .  S
O954        H955   0.992       .  S
C957        C958   1.406       .  A
C957       C1930   1.405       .  A
C958        C959   1.415       .  A
C958        H963   1.084       .  S
C959        C960   1.418       .  A
C959        O964   1.372       .  S
C960       C1929   1.410       .  A
C961       C1928   1.410   1_545  A
C961        C962   1.396       .  A
C961        H965   1.082       .  S
C962       C1925   1.405   1_545  A
C962        O966   1.372       .  S
O964        H968   0.993       .  S
O966        H967   0.992       .  S
In969       O971   2.247       .  S
In969       O980   2.250       .  S
In969       O974   2.273       .  S
In969       O981   2.243       .  S
C970        O976   1.264       .  A
C970        O978   1.259       .  A
C970       C1417   1.490       .  S
O972        C979   1.263       .  A
C973        O980   1.262       .  A
C973        O974   1.266       .  A
C973       C1432   1.495       .  S
C975        O977   1.264       .  A
C975       C1441   1.490       .  S
C979       C1077   1.470       .  S
In982       O984   2.258       .  S
In982       O985   2.273       .  S
In982       O993   2.262       .  S
In982       O987   2.234       .  S
In982       O989   2.259       .  S
In982       O990   2.256       .  S
In982       O991   2.256       .  S
In982       O994   2.266       .  S
C983        O989   1.259       .  A
C983        O991   1.259       .  A
C983       C1393   1.484       .  S
O984        C992   1.260       .  A
O985        C992   1.265       .  A
C986        O993   1.262       .  A
C986        O987   1.259       .  A
C986       C1405   1.476       .  S
C988        O990   1.262       .  A
C988        O994   1.261       .  A
C988       C1420   1.491       .  S
C992       C1429   1.494       .  S
C995        C997   1.539       .  S
C995        C999   1.526       .  S
C995        C998   1.529       .  S
C995       C1396   1.538       .  S
C996       C1000   1.546       .  S
C996       C1002   1.545       .  S
C996       C1001   1.555       .  S
C996       C1381   1.543       .  S
C997       C1005   1.375       .  A
C997       C1000   1.398       .  A
C998       C1009   1.367       .  A
C998       C1001   1.414       .  A
C999       C1013   1.372       .  A
C999       C1002   1.387       .  A
C1000      C1003   1.383       .  A
C1001      C1007   1.396       .  A
C1002      C1010   1.383       .  A
C1003      N1004   1.357       .  A
C1003      H1016   1.081       .  S
N1004      C1005   1.353       .  A
N1004      C1348   1.438       .  S
C1005      H1006   1.081       .  S
C1007      N1008   1.355       .  A
C1007      H1017   1.081       .  S
N1008      C1009   1.346       .  A
N1008      C1369   1.433       .  S
C1009      H1015   1.083       .  S
C1010      N1011   1.361       .  A
C1010      H1012   1.082       .  S
N1011      C1013   1.355       .  A
N1011      C1357   1.441       .  S
C1013      H1014   1.081       .  S
In1018     O1020   2.251   1_545  S
In1018     O1021   2.267   1_645  S
In1018     O1029   2.270   1_545  S
In1018     O1025   2.252   1_645  S
C1019      O1025   1.260       .  A
C1019      C1324   1.480       .  S
O1020      C1028   1.260   1_655  A
O1021      C1028   1.263       .  A
C1022      O1029   1.264   1_545  A
C1022      C1333   1.481       .  S
C1024      O1026   1.266   1_455  A
C1024      O1030   1.258       .  A
C1024      C1297   1.484       .  S
C1028      C1309   1.491       .  S
C1031      C1035   1.518       .  S
C1031      C1034   1.542       .  S
C1031      C1321   1.534       .  S
C1032      C1038   1.534       .  S
C1032      C1037   1.556       .  S
C1032      C1444   1.542       .  S
C1033      C1041   1.376       .  A
C1033      C1036   1.394       .  A
C1034      C1045   1.373       .  A
C1034      C1037   1.422       .  A
C1035      C1049   1.371       .  A
C1035      C1038   1.379       .  A
C1036      C1039   1.377       .  A
C1037      C1043   1.394       .  A
C1038      C1046   1.378       .  A
C1039      N1040   1.359       .  A
C1039      H1052   1.082       .  S
N1040      C1041   1.357       .  A
N1040      C1360   1.440       .  S
C1041      H1042   1.080       .  S
C1043      N1044   1.353       .  A
C1043      H1053   1.080       .  S
N1044      C1045   1.343       .  A
N1044      C1285   1.431       .  S
C1045      H1051   1.081       .  S
C1046      N1047   1.360       .  A
C1046      H1048   1.082       .  S
N1047      C1049   1.355       .  A
N1047      C1345   1.436       .  S
C1049      H1050   1.083       .  S
In1054     O1540   2.245   1_455  S
In1054     O1541   2.261       .  S
In1054     O1065   2.248       .  S
In1054     O1059   2.252       .  S
In1054     O1061   2.247       .  S
In1054     O1062   2.270       .  S
In1054     O1063   2.251       .  S
In1054     O1066   2.239       .  S
C1055      O1061   1.263       .  A
C1055      O1063   1.261       .  A
C1055      C1300   1.484       .  S
O1056     In1538   2.245   1_655  S
O1056      C1064   1.260   1_655  A
O1057     In1538   2.261       .  S
O1057      C1064   1.265       .  A
C1058      O1065   1.262       .  A
C1058      O1059   1.264       .  A
C1058      C1312   1.489       .  S
C1060      O1062   1.265       .  A
C1060      O1066   1.259       .  A
C1060      C1384   1.487       .  S
C1064      C1162   1.471   1_455  S
In1067     O1553   2.255       .  S
In1067     O1078   2.245       .  S
In1067     O1072   2.254       .  S
In1067     O1079   2.245       .  S
C1068      O1074   1.261       .  A
C1068      O1076   1.260       .  A
C1068      C1249   1.486       .  S
O1069     In1551   2.255       .  S
O1070      C1077   1.263       .  A
C1071      O1078   1.261       .  A
C1071      O1072   1.262       .  A
C1071      C1264   1.484       .  S
C1073      O1075   1.263       .  A
C1073      C1276   1.490       .  S
In1080     O1082   2.259       .  S
In1080     O1083   2.262   1_455  S
In1080     O1091   2.255   1_565  S
In1080     O1087   2.258   1_455  S
C1081      O1089   1.257       .  A
O1082      C1090   1.258       .  A
O1083      C1090   1.259   1_655  A
C1084      O1091   1.264   1_565  A
C1084      C1288   1.477       .  S
C1086      O1088   1.264       .  A
C1086      O1092   1.259       .  A
C1086      C1213   1.483       .  S
C1090      C1225   1.484       .  S
C1093      C1097   1.516       .  S
C1093      C1096   1.544       .  S
C1093      C1237   1.537       .  S
C1094      C1100   1.536       .  S
C1094      C1099   1.565       .  S
C1094      C1273   1.542       .  S
C1095      C1103   1.369       .  A
C1095      C1098   1.390       .  A
C1096      C1107   1.374       .  A
C1096      C1099   1.428       .  A
C1097      C1111   1.369       .  A
C1097      C1100   1.381       .  A
C1098      C1101   1.382       .  A
C1099      C1105   1.397   1_565  A
C1100      C1108   1.380       .  A
C1101      N1102   1.360       .  A
C1101      H1114   1.082       .  S
N1102      C1103   1.353       .  A
N1102      C1201   1.436       .  S
C1103      H1104   1.082       .  S
C1105      N1106   1.355       .  A
C1105      H1115   1.081       .  S
N1106      C1107   1.345   1_545  A
N1106      C1336   1.438       .  S
C1107      H1113   1.078   1_565  S
C1108      N1109   1.358       .  A
C1108      H1110   1.082       .  S
N1109      C1111   1.350       .  A
N1109      C1192   1.429       .  S
C1111      H1112   1.082       .  S
In1116     O1118   2.241       .  S
In1116     O1119   2.252       .  S
In1116     O1127   2.275       .  S
In1116     O1121   2.213       .  S
In1116     O1123   2.245       .  S
In1116     O1124   2.278       .  S
In1116     O1125   2.246       .  S
In1116     O1128   2.223       .  S
C1117      O1123   1.259       .  A
C1117      O1125   1.260       .  A
C1117      C1180   1.479       .  S
O1118      C1126   1.261       .  A
O1119      C1126   1.264       .  A
C1120      O1127   1.263       .  A
C1120      O1121   1.257       .  A
C1120      C1372   1.477       .  S
C1122      O1124   1.265       .  A
C1122      O1128   1.257       .  A
C1122      C1252   1.484       .  S
C1126      C1261   1.485       .  S
C1129      C1131   1.532       .  S
C1129      C1133   1.514       .  S
C1129      C1132   1.536       .  S
C1129      C1177   1.535       .  S
C1130      C1134   1.543       .  S
C1130      C1136   1.539       .  S
C1130      C1135   1.565       .  S
C1130      C1165   1.544       .  S
C1131      C1139   1.366       .  A
C1131      C1134   1.393       .  A
C1132      C1143   1.372       .  A
C1132      C1135   1.426       .  A
C1133      C1147   1.370       .  A
C1133      C1136   1.381       .  A
C1134      C1137   1.381       .  A
C1135      C1141   1.398       .  A
C1136      C1144   1.381       .  A
C1137      N1138   1.360       .  A
C1137      H1150   1.081       .  S
N1138      C1139   1.351       .  A
N1138      C1189   1.434       .  S
C1139      H1140   1.081       .  S
C1141      N1142   1.354       .  A
C1141      H1151   1.080       .  S
N1142      C1143   1.343       .  A
N1142      C1408   1.435       .  S
C1143      H1149   1.081       .  S
C1144      N1145   1.360       .  A
C1144      H1146   1.082       .  S
N1145      C1147   1.353       .  A
N1145      C1204   1.433       .  S
C1147      H1148   1.082       .  S
In1152     O1154   2.251   1_655  S
In1152     O1155   2.252       .  S
In1152     O1163   2.239       .  S
In1152     O1157   2.250       .  S
In1152     O1159   2.255       .  S
In1152     O1160   2.285       .  S
In1152     O1161   2.254       .  S
In1152     O1164   2.241       .  S
C1153      O1159   1.262       .  A
C1153      O1161   1.261       .  A
C1153      C1216   1.487       .  S
O1154      C1162   1.260   1_455  A
O1155      C1162   1.265       .  A
C1156      O1163   1.262       .  A
C1156      O1157   1.264       .  A
C1156      C1228   1.485       .  S
C1158      O1160   1.265       .  A
C1158      O1164   1.259       .  A
C1158      C1168   1.494       .  S
C1165      C1166   1.412       .  A
C1165      C1170   1.418       .  A
C1166      C1167   1.409       .  A
C1166      H1171   1.076       .  S
C1167      C1168   1.410       .  A
C1167      O1172   1.371       .  S
C1168      C1169   1.403       .  A
C1169      C1170   1.403       .  A
C1169      H1173   1.084       .  S
C1170      O1174   1.375       .  S
O1172      H1176   0.992       .  S
O1174      H1175   0.992       .  S
C1177      C1178   1.410       .  A
C1177      C1182   1.415       .  A
C1178      C1179   1.396       .  A
C1178      H1183   1.082       .  S
C1179      C1180   1.406       .  A
C1179      O1184   1.372       .  S
C1180      C1181   1.403       .  A
C1181      C1182   1.405       .  A
C1181      H1185   1.083       .  S
C1182      O1186   1.374       .  S
O1184      H1188   0.992       .  S
O1186      H1187   0.992       .  S
C1189      C1190   1.400       .  A
C1189      C1194   1.415       .  A
C1190      C1191   1.400       .  A
C1190      H1195   1.083       .  S
C1191      C1192   1.411       .  A
C1191      O1196   1.372       .  S
C1192      C1193   1.395       .  A
C1193      C1194   1.391       .  A
C1193      H1197   1.083       .  S
C1194      O1198   1.371       .  S
O1196      H1200   0.992       .  S
O1198      H1199   0.992       .  S
C1201      C1202   1.401       .  A
C1201      C1206   1.411       .  A
C1202      C1203   1.402       .  A
C1202      H1207   1.083       .  S
C1203      C1204   1.410       .  A
C1203      O1208   1.372       .  S
C1204      C1205   1.397       .  A
C1205      C1206   1.394       .  A
C1205      H1209   1.083       .  S
C1206      O1210   1.369       .  S
O1208      H1212   0.992       .  S
O1210      H1211   0.992       .  S
C1213      C1214   1.404       .  A
C1213      C1218   1.410   1_455  A
C1214      C1215   1.400       .  A
C1214      H1219   1.084       .  S
C1215      C1216   1.410   1_455  A
C1215      O1220   1.371       .  S
C1216      C1217   1.408       .  A
C1217      C1218   1.405       .  A
C1217      H1221   1.083       .  S
C1218      O1222   1.372       .  S
O1220      H1224   0.992       .  S
O1222      H1223   0.992       .  S
C1225      C1226   1.406       .  A
C1225      C1230   1.409   1_455  A
C1226      C1227   1.402       .  A
C1226      H1231   1.083       .  S
C1227      C1228   1.410   1_455  A
C1227      O1232   1.371       .  S
C1228      C1229   1.406       .  A
C1229      C1230   1.402       .  A
C1229      H1233   1.083       .  S
C1230      O1234   1.371       .  S
O1232      H1236   0.992       .  S
O1234      H1235   0.992       .  S
C1237      C1238   1.408       .  A
C1238      C1239   1.401       .  A
C1238      H1243   1.075       .  S
C1239      C1240   1.406       .  A
C1239      O1244   1.371       .  S
C1241      C1242   1.400       .  A
C1241      H1245   1.084       .  S
C1242      O1246   1.377       .  S
O1244      H1248   0.992       .  S
O1246      H1247   0.990       .  S
C1249      C1250   1.403       .  A
C1249      C1254   1.412       .  A
C1250      C1251   1.400       .  A
C1250      H1255   1.084       .  S
C1251      C1252   1.412       .  A
C1251      O1256   1.372       .  S
C1252      C1253   1.404       .  A
C1253      C1254   1.406       .  A
C1253      H1257   1.083       .  S
C1254      O1258   1.371       .  S
O1256      H1260   0.992       .  S
O1258      H1259   0.992       .  S
C1261      C1262   1.407       .  A
C1261      C1266   1.410       .  A
C1262      C1263   1.402       .  A
C1262      H1267   1.083       .  S
C1263      C1264   1.411       .  A
C1263      O1268   1.372       .  S
C1264      C1265   1.405       .  A
C1265      C1266   1.401       .  A
C1265      H1269   1.083       .  S
C1266      O1270   1.371       .  S
O1268      H1272   0.992       .  S
O1270      H1271   0.992       .  S
C1273      C1278   1.419   1_565  A
C1274      C1275   1.410       .  A
C1274      H1279   1.078       .  S
C1275      O1280   1.371       .  S
C1276      C1277   1.401   1_565  A
C1277      C1278   1.400       .  A
C1277      H1281   1.084       .  S
C1278      O1282   1.374       .  S
O1280      H1284   0.992       .  S
O1282      H1283   0.992   1_545  S
C1285      C1290   1.404       .  A
C1286      C1287   1.406       .  A
C1286      H1291   1.083       .  S
C1287      O1292   1.371       .  S
C1288      C1289   1.402       .  A
C1289      C1290   1.395       .  A
C1289      H1293   1.084       .  S
C1290      O1294   1.372       .  S
O1292      H1296   0.992       .  S
O1294      H1295   0.992       .  S
C1297      C1298   1.404       .  A
C1297      C1302   1.412       .  A
C1298      C1299   1.405       .  A
C1298      H1303   1.083       .  S
C1299      C1300   1.412       .  A
C1299      O1304   1.372       .  S
C1300      C1301   1.402       .  A
C1301      C1302   1.400       .  A
C1301      H1305   1.084       .  S
C1302      O1306   1.372   1_455  S
O1304      H1308   0.992       .  S
O1306      H1307   0.992   1_655  S
C1309      C1310   1.406       .  A
C1309      C1314   1.413   1_455  A
C1310      C1311   1.404       .  A
C1310      H1315   1.083       .  S
C1311      C1312   1.413       .  A
C1311      O1316   1.371       .  S
C1312      C1313   1.405       .  A
C1313      C1314   1.403   1_455  A
C1313      H1317   1.083   1_455  S
C1314      O1318   1.371       .  S
O1316      H1804   0.992       .  S
O1318      H1319   0.992       .  S
H1320      O1800   0.992       .  S
C1321      C1322   1.410       .  A
C1322      C1323   1.400       .  A
C1322      H1327   1.078       .  S
C1323      C1324   1.407       .  A
C1323      O1328   1.372       .  S
C1325      C1326   1.401       .  A
C1325      H1329   1.083       .  S
C1326      O1330   1.376       .  S
O1328      H1332   0.992       .  S
O1330      H1331   0.992       .  S
C1333      C1338   1.410   1_545  A
C1334      C1335   1.400       .  A
C1334      H1339   1.084       .  S
C1335      O1340   1.374       .  S
C1336      C1337   1.403   1_545  A
C1337      C1338   1.405       .  A
C1337      H1341   1.083       .  S
C1338      O1342   1.371       .  S
O1340      H1344   0.992       .  S
O1342      H1343   0.992       .  S
C1345      C1346   1.405       .  A
C1345      C1350   1.406       .  A
C1346      C1347   1.400       .  A
C1346      H1351   1.083       .  S
C1347      C1348   1.407       .  A
C1347      O1352   1.371       .  S
C1348      C1349   1.405       .  A
C1349      C1350   1.396       .  A
C1349      H1353   1.082       .  S
C1350      O1354   1.371       .  S
O1352      H1356   0.992       .  S
O1354      H1355   0.991       .  S
C1357      C1358   1.404       .  A
C1357      C1362   1.411       .  A
C1358      C1359   1.403       .  A
C1358      H1363   1.083       .  S
C1359      C1360   1.410       .  A
C1359      O1364   1.370       .  S
C1360      C1361   1.403       .  A
C1361      C1362   1.394       .  A
C1361      H1365   1.083       .  S
C1362      O1366   1.371       .  S
O1364      H1368   0.992       .  S
O1366      H1367   0.991       .  S
C1369      C1370   1.403       .  A
C1369      C1374   1.405       .  A
C1370      C1371   1.404       .  A
C1370      H1375   1.083       .  S
C1371      C1372   1.410       .  A
C1371      O1376   1.371       .  S
C1372      C1373   1.404       .  A
C1373      C1374   1.395       .  A
C1373      H1377   1.084       .  S
C1374      O1378   1.373       .  S
O1376      H1380   0.992       .  S
O1378      H1379   0.992       .  S
C1381      C1382   1.410       .  A
C1381      C1386   1.418       .  A
C1382      C1383   1.399       .  A
C1382      H1387   1.083       .  S
C1383      C1384   1.408       .  A
C1383      O1388   1.372       .  S
C1384      C1385   1.403       .  A
C1385      C1386   1.407       .  A
C1385      H1389   1.083       .  S
C1386      O1390   1.368       .  S
O1388      H1392   0.992       .  S
O1390      H1391   0.993       .  S
C1393      C1394   1.404       .  A
C1393      C1398   1.408       .  A
C1394      C1395   1.406       .  A
C1394      H1399   1.083       .  S
C1395      C1396   1.413       .  A
C1395      O1400   1.375       .  S
C1396      C1397   1.410       .  A
C1397      C1398   1.400       .  A
C1397      H1401   1.080       .  S
C1398      O1402   1.372       .  S
O1400      H1404   0.991       .  S
O1402      H1403   0.991       .  S
C1405      C1406   1.403       .  A
C1405      C1410   1.409       .  A
C1406      C1407   1.399       .  A
C1406      H1411   1.084       .  S
C1407      C1408   1.408       .  A
C1407      O1412   1.373       .  S
C1408      C1409   1.402       .  A
C1409      C1410   1.403       .  A
C1409      H1413   1.083       .  S
C1410      O1414   1.371       .  S
O1412      H1416   0.992       .  S
O1414      H1415   0.991       .  S
C1417      C1418   1.406       .  A
C1417      C1422   1.412       .  A
C1418      C1419   1.407       .  A
C1418      H1423   1.083       .  S
C1419      C1420   1.414       .  A
C1419      O1424   1.371       .  S
C1420      C1421   1.404       .  A
C1421      C1422   1.402       .  A
C1421      H1425   1.083       .  S
C1422      O1426   1.372       .  S
O1424      H1428   0.992       .  S
O1426      H1427   0.992       .  S
C1429      C1430   1.404       .  A
C1429      C1434   1.415       .  A
C1430      C1431   1.404       .  A
C1430      H1435   1.083       .  S
C1431      C1432   1.414       .  A
C1431      O1436   1.371       .  S
C1432      C1433   1.406       .  A
C1433      C1434   1.407       .  A
C1433      H1437   1.083       .  S
C1434      O1438   1.371       .  S
O1436      H1440   0.992       .  S
O1438      H1439   0.992       .  S
C1441      C1442   1.406       .  A
C1442      C1443   1.415       .  A
C1442      H1447   1.084       .  S
C1443      C1444   1.418       .  A
C1443      O1448   1.372       .  S
C1445      C1446   1.396       .  A
C1445      H1449   1.082       .  S
C1446      O1450   1.372       .  S
O1448      H1452   0.993       .  S
O1450      H1451   0.992       .  S
In1453     O1455   2.247       .  S
In1453     O1464   2.250       .  S
In1453     O1458   2.273       .  S
In1453     O1465   2.243       .  S
C1454      O1460   1.264       .  A
C1454      O1462   1.259       .  A
C1454      C1901   1.490       .  S
O1456      C1463   1.263       .  A
C1457      O1464   1.262       .  A
C1457      O1458   1.266       .  A
C1457      C1916   1.495       .  S
C1459      O1461   1.264       .  A
C1459      C1925   1.490       .  S
C1463      C1561   1.470       .  S
In1466     O1468   2.258       .  S
In1466     O1469   2.273       .  S
In1466     O1477   2.262       .  S
In1466     O1471   2.234       .  S
In1466     O1473   2.259       .  S
In1466     O1474   2.256       .  S
In1466     O1475   2.256       .  S
In1466     O1478   2.266       .  S
C1467      O1473   1.259       .  A
C1467      O1475   1.259       .  A
C1467      C1877   1.484       .  S
O1468      C1476   1.260       .  A
O1469      C1476   1.265       .  A
C1470      O1477   1.262       .  A
C1470      O1471   1.259       .  A
C1470      C1889   1.476       .  S
C1472      O1474   1.262       .  A
C1472      O1478   1.261       .  A
C1472      C1904   1.491       .  S
C1476      C1913   1.494       .  S
C1479      C1481   1.539       .  S
C1479      C1483   1.526       .  S
C1479      C1482   1.529       .  S
C1479      C1880   1.538       .  S
C1480      C1484   1.546       .  S
C1480      C1486   1.545       .  S
C1480      C1485   1.555       .  S
C1480      C1865   1.543       .  S
C1481      C1489   1.375       .  A
C1481      C1484   1.398       .  A
C1482      C1493   1.367       .  A
C1482      C1485   1.414       .  A
C1483      C1497   1.372       .  A
C1483      C1486   1.387       .  A
C1484      C1487   1.383       .  A
C1485      C1491   1.396       .  A
C1486      C1494   1.383       .  A
C1487      N1488   1.357       .  A
C1487      H1500   1.081       .  S
N1488      C1489   1.353       .  A
N1488      C1832   1.438       .  S
C1489      H1490   1.081       .  S
C1491      N1492   1.355       .  A
C1491      H1501   1.081       .  S
N1492      C1493   1.346       .  A
N1492      C1853   1.433       .  S
C1493      H1499   1.083       .  S
C1494      N1495   1.361       .  A
C1494      H1496   1.082       .  S
N1495      C1497   1.355       .  A
N1495      C1841   1.441       .  S
C1497      H1498   1.081       .  S
In1502     O1504   2.251   1_545  S
In1502     O1505   2.267   1_645  S
In1502     O1513   2.270   1_545  S
In1502     O1509   2.252   1_645  S
C1503      O1509   1.260       .  A
C1503      C1808   1.480       .  S
O1504      C1512   1.260   1_655  A
O1505      C1512   1.263       .  A
C1506      O1513   1.264   1_545  A
C1506      C1817   1.481       .  S
C1508      O1510   1.266   1_455  A
C1508      O1514   1.258       .  A
C1508      C1781   1.484       .  S
C1512      C1793   1.491       .  S
C1515      C1519   1.518       .  S
C1515      C1518   1.542       .  S
C1515      C1805   1.534       .  S
C1516      C1522   1.534       .  S
C1516      C1521   1.556       .  S
C1516      C1928   1.542       .  S
C1517      C1525   1.376       .  A
C1517      C1520   1.394       .  A
C1518      C1529   1.373       .  A
C1518      C1521   1.422       .  A
C1519      C1533   1.371       .  A
C1519      C1522   1.379       .  A
C1520      C1523   1.377       .  A
C1521      C1527   1.394       .  A
C1522      C1530   1.378       .  A
C1523      N1524   1.359       .  A
C1523      H1536   1.082       .  S
N1524      C1525   1.357       .  A
N1524      C1844   1.440       .  S
C1525      H1526   1.080       .  S
C1527      N1528   1.353       .  A
C1527      H1537   1.080       .  S
N1528      C1529   1.343       .  A
N1528      C1769   1.431       .  S
C1529      H1535   1.081       .  S
C1530      N1531   1.360       .  A
C1530      H1532   1.082       .  S
N1531      C1533   1.355       .  A
N1531      C1829   1.436       .  S
C1533      H1534   1.083       .  S
In1538     O1549   2.248       .  S
In1538     O1543   2.252       .  S
In1538     O1545   2.247       .  S
In1538     O1546   2.270       .  S
In1538     O1547   2.251       .  S
In1538     O1550   2.239       .  S
C1539      O1545   1.263       .  A
C1539      O1547   1.261       .  A
C1539      C1784   1.484       .  S
O1540      C1548   1.260   1_654  A
O1541      C1548   1.265   1_554  A
C1542      O1549   1.262       .  A
C1542      O1543   1.264       .  A
C1542      C1796   1.489       .  S
C1544      O1546   1.265       .  A
C1544      O1550   1.259       .  A
C1544      C1868   1.487       .  S
C1548      C1646   1.471   1_455  S
In1551     O1562   2.245       .  S
In1551     O1556   2.254       .  S
In1551     O1563   2.245       .  S
C1552      O1558   1.261       .  A
C1552      O1560   1.260       .  A
C1552      C1733   1.486       .  S
O1554      C1561   1.263   1_554  A
C1555      O1562   1.261       .  A
C1555      O1556   1.262       .  A
C1555      C1748   1.484       .  S
C1557      O1559   1.263       .  A
C1557      C1760   1.490       .  S
In1564     O1566   2.259       .  S
In1564     O1567   2.262   1_455  S
In1564     O1575   2.255   1_565  S
In1564     O1571   2.258   1_455  S
C1565      O1573   1.257       .  A
O1566      C1574   1.258       .  A
O1567      C1574   1.259   1_655  A
C1568      O1575   1.264   1_565  A
C1568      C1772   1.477       .  S
C1570      O1572   1.264       .  A
C1570      O1576   1.259       .  A
C1570      C1697   1.483       .  S
C1574      C1709   1.484       .  S
C1577      C1581   1.516       .  S
C1577      C1580   1.544       .  S
C1577      C1721   1.537       .  S
C1578      C1584   1.536       .  S
C1578      C1583   1.565       .  S
C1578      C1757   1.542       .  S
C1579      C1587   1.369       .  A
C1579      C1582   1.390       .  A
C1580      C1591   1.374       .  A
C1580      C1583   1.428       .  A
C1581      C1595   1.369       .  A
C1581      C1584   1.381       .  A
C1582      C1585   1.382       .  A
C1583      C1589   1.397   1_565  A
C1584      C1592   1.380       .  A
C1585      N1586   1.360       .  A
C1585      H1598   1.082       .  S
N1586      C1587   1.353       .  A
N1586      C1685   1.436       .  S
C1587      H1588   1.082       .  S
C1589      N1590   1.355       .  A
C1589      H1599   1.081       .  S
N1590      C1591   1.345   1_545  A
N1590      C1820   1.438       .  S
C1591      H1597   1.078   1_565  S
C1592      N1593   1.358       .  A
C1592      H1594   1.082       .  S
N1593      C1595   1.350       .  A
N1593      C1676   1.429       .  S
C1595      H1596   1.082       .  S
In1600     O1602   2.241       .  S
In1600     O1603   2.252       .  S
In1600     O1611   2.275       .  S
In1600     O1605   2.213       .  S
In1600     O1607   2.245       .  S
In1600     O1608   2.278       .  S
In1600     O1609   2.246       .  S
In1600     O1612   2.223       .  S
C1601      O1607   1.259       .  A
C1601      O1609   1.260       .  A
C1601      C1664   1.479       .  S
O1602      C1610   1.261       .  A
O1603      C1610   1.264       .  A
C1604      O1611   1.263       .  A
C1604      O1605   1.257       .  A
C1604      C1856   1.477       .  S
C1606      O1608   1.265       .  A
C1606      O1612   1.257       .  A
C1606      C1736   1.484       .  S
C1610      C1745   1.485       .  S
C1613      C1615   1.532       .  S
C1613      C1617   1.514       .  S
C1613      C1616   1.536       .  S
C1613      C1661   1.535       .  S
C1614      C1618   1.543       .  S
C1614      C1620   1.539       .  S
C1614      C1619   1.565       .  S
C1614      C1649   1.544       .  S
C1615      C1623   1.366       .  A
C1615      C1618   1.393       .  A
C1616      C1627   1.372       .  A
C1616      C1619   1.426       .  A
C1617      C1631   1.370       .  A
C1617      C1620   1.381       .  A
C1618      C1621   1.381       .  A
C1619      C1625   1.398       .  A
C1620      C1628   1.381       .  A
C1621      N1622   1.360       .  A
C1621      H1634   1.081       .  S
N1622      C1623   1.351       .  A
N1622      C1673   1.434       .  S
C1623      H1624   1.081       .  S
C1625      N1626   1.354       .  A
C1625      H1635   1.080       .  S
N1626      C1627   1.343       .  A
N1626      C1892   1.435       .  S
C1627      H1633   1.081       .  S
C1628      N1629   1.360       .  A
C1628      H1630   1.082       .  S
N1629      C1631   1.353       .  A
N1629      C1688   1.433       .  S
C1631      H1632   1.082       .  S
In1636     O1638   2.251   1_655  S
In1636     O1639   2.252       .  S
In1636     O1647   2.239       .  S
In1636     O1641   2.250       .  S
In1636     O1643   2.255       .  S
In1636     O1644   2.285       .  S
In1636     O1645   2.254       .  S
In1636     O1648   2.241       .  S
C1637      O1643   1.262       .  A
C1637      O1645   1.261       .  A
C1637      C1700   1.487       .  S
O1638      C1646   1.260   1_455  A
O1639      C1646   1.265       .  A
C1640      O1647   1.262       .  A
C1640      O1641   1.264       .  A
C1640      C1712   1.485       .  S
C1642      O1644   1.265       .  A
C1642      O1648   1.259       .  A
C1642      C1652   1.494       .  S
C1649      C1650   1.412       .  A
C1649      C1654   1.418       .  A
C1650      C1651   1.409       .  A
C1650      H1655   1.076       .  S
C1651      C1652   1.410       .  A
C1651      O1656   1.371       .  S
C1652      C1653   1.403       .  A
C1653      C1654   1.403       .  A
C1653      H1657   1.084       .  S
C1654      O1658   1.375       .  S
O1656      H1660   0.992       .  S
O1658      H1659   0.992       .  S
C1661      C1662   1.410       .  A
C1661      C1666   1.415       .  A
C1662      C1663   1.396       .  A
C1662      H1667   1.082       .  S
C1663      C1664   1.406       .  A
C1663      O1668   1.372       .  S
C1664      C1665   1.403       .  A
C1665      C1666   1.405       .  A
C1665      H1669   1.083       .  S
C1666      O1670   1.374       .  S
O1668      H1672   0.992       .  S
O1670      H1671   0.992       .  S
C1673      C1674   1.400       .  A
C1673      C1678   1.415       .  A
C1674      C1675   1.400       .  A
C1674      H1679   1.083       .  S
C1675      C1676   1.411       .  A
C1675      O1680   1.372       .  S
C1676      C1677   1.395       .  A
C1677      C1678   1.391       .  A
C1677      H1681   1.083       .  S
C1678      O1682   1.371       .  S
O1680      H1684   0.992       .  S
O1682      H1683   0.992       .  S
C1685      C1686   1.401       .  A
C1685      C1690   1.411       .  A
C1686      C1687   1.402       .  A
C1686      H1691   1.083       .  S
C1687      C1688   1.410       .  A
C1687      O1692   1.372       .  S
C1688      C1689   1.397       .  A
C1689      C1690   1.394       .  A
C1689      H1693   1.083       .  S
C1690      O1694   1.369       .  S
O1692      H1696   0.992       .  S
O1694      H1695   0.992       .  S
C1697      C1698   1.404       .  A
C1697      C1702   1.410   1_455  A
C1698      C1699   1.400       .  A
C1698      H1703   1.084       .  S
C1699      C1700   1.410   1_455  A
C1699      O1704   1.371       .  S
C1700      C1701   1.408       .  A
C1701      C1702   1.405       .  A
C1701      H1705   1.083       .  S
C1702      O1706   1.372       .  S
O1704      H1708   0.992       .  S
O1706      H1707   0.992       .  S
C1709      C1710   1.406       .  A
C1709      C1714   1.409   1_455  A
C1710      C1711   1.402       .  A
C1710      H1715   1.083       .  S
C1711      C1712   1.410   1_455  A
C1711      O1716   1.371       .  S
C1712      C1713   1.406       .  A
C1713      C1714   1.402       .  A
C1713      H1717   1.083       .  S
C1714      O1718   1.371       .  S
O1716      H1720   0.992       .  S
O1718      H1719   0.992       .  S
C1721      C1722   1.408       .  A
C1722      C1723   1.401       .  A
C1722      H1727   1.075       .  S
C1723      C1724   1.406       .  A
C1723      O1728   1.371       .  S
C1725      C1726   1.400       .  A
C1725      H1729   1.084       .  S
C1726      O1730   1.377       .  S
O1728      H1732   0.992       .  S
O1730      H1731   0.990       .  S
C1733      C1734   1.403       .  A
C1733      C1738   1.412       .  A
C1734      C1735   1.400       .  A
C1734      H1739   1.084       .  S
C1735      C1736   1.412       .  A
C1735      O1740   1.372       .  S
C1736      C1737   1.404       .  A
C1737      C1738   1.406       .  A
C1737      H1741   1.083       .  S
C1738      O1742   1.371       .  S
O1740      H1744   0.992       .  S
O1742      H1743   0.992       .  S
C1745      C1746   1.407       .  A
C1745      C1750   1.410       .  A
C1746      C1747   1.402       .  A
C1746      H1751   1.083       .  S
C1747      C1748   1.411       .  A
C1747      O1752   1.372       .  S
C1748      C1749   1.405       .  A
C1749      C1750   1.401       .  A
C1749      H1753   1.083       .  S
C1750      O1754   1.371       .  S
O1752      H1756   0.992       .  S
O1754      H1755   0.992       .  S
C1757      C1762   1.419   1_565  A
C1758      C1759   1.410       .  A
C1758      H1763   1.078       .  S
C1759      O1764   1.371       .  S
C1760      C1761   1.401   1_565  A
C1761      C1762   1.400       .  A
C1761      H1765   1.084       .  S
C1762      O1766   1.374       .  S
O1764      H1768   0.992       .  S
O1766      H1767   0.992   1_545  S
C1769      C1774   1.404       .  A
C1770      C1771   1.406       .  A
C1770      H1775   1.083       .  S
C1771      O1776   1.371       .  S
C1772      C1773   1.402       .  A
C1773      C1774   1.395       .  A
C1773      H1777   1.084       .  S
C1774      O1778   1.372       .  S
O1776      H1780   0.992       .  S
O1778      H1779   0.992       .  S
C1781      C1782   1.404       .  A
C1781      C1786   1.412       .  A
C1782      C1783   1.405       .  A
C1782      H1787   1.083       .  S
C1783      C1784   1.412       .  A
C1783      O1788   1.372       .  S
C1784      C1785   1.402       .  A
C1785      C1786   1.400       .  A
C1785      H1789   1.084       .  S
C1786      O1790   1.372   1_455  S
O1788      H1792   0.992       .  S
O1790      H1791   0.992   1_655  S
C1793      C1794   1.406       .  A
C1793      C1798   1.413   1_455  A
C1794      C1795   1.404       .  A
C1794      H1799   1.083       .  S
C1795      C1796   1.413       .  A
C1795      O1800   1.371       .  S
C1796      C1797   1.405       .  A
C1797      C1798   1.403   1_455  A
C1797      H1801   1.083   1_455  S
C1798      O1802   1.371       .  S
O1802      H1803   0.992       .  S
C1805      C1806   1.410       .  A
C1806      C1807   1.400       .  A
C1806      H1811   1.078       .  S
C1807      C1808   1.407       .  A
C1807      O1812   1.372       .  S
C1809      C1810   1.401       .  A
C1809      H1813   1.083       .  S
C1810      O1814   1.376       .  S
O1812      H1816   0.992       .  S
O1814      H1815   0.992       .  S
C1817      C1822   1.410   1_545  A
C1818      C1819   1.400       .  A
C1818      H1823   1.084       .  S
C1819      O1824   1.374       .  S
C1820      C1821   1.403   1_545  A
C1821      C1822   1.405       .  A
C1821      H1825   1.083       .  S
C1822      O1826   1.371       .  S
O1824      H1828   0.992       .  S
O1826      H1827   0.992       .  S
C1829      C1830   1.405       .  A
C1829      C1834   1.406       .  A
C1830      C1831   1.400       .  A
C1830      H1835   1.083       .  S
C1831      C1832   1.407       .  A
C1831      O1836   1.371       .  S
C1832      C1833   1.405       .  A
C1833      C1834   1.396       .  A
C1833      H1837   1.082       .  S
C1834      O1838   1.371       .  S
O1836      H1840   0.992       .  S
O1838      H1839   0.991       .  S
C1841      C1842   1.404       .  A
C1841      C1846   1.411       .  A
C1842      C1843   1.403       .  A
C1842      H1847   1.083       .  S
C1843      C1844   1.410       .  A
C1843      O1848   1.370       .  S
C1844      C1845   1.403       .  A
C1845      C1846   1.394       .  A
C1845      H1849   1.083       .  S
C1846      O1850   1.371       .  S
O1848      H1852   0.992       .  S
O1850      H1851   0.991       .  S
C1853      C1854   1.403       .  A
C1853      C1858   1.405       .  A
C1854      C1855   1.404       .  A
C1854      H1859   1.083       .  S
C1855      C1856   1.410       .  A
C1855      O1860   1.371       .  S
C1856      C1857   1.404       .  A
C1857      C1858   1.395       .  A
C1857      H1861   1.084       .  S
C1858      O1862   1.373       .  S
O1860      H1864   0.992       .  S
O1862      H1863   0.992       .  S
C1865      C1866   1.410       .  A
C1865      C1870   1.418       .  A
C1866      C1867   1.399       .  A
C1866      H1871   1.083       .  S
C1867      C1868   1.408       .  A
C1867      O1872   1.372       .  S
C1868      C1869   1.403       .  A
C1869      C1870   1.407       .  A
C1869      H1873   1.083       .  S
C1870      O1874   1.368       .  S
O1872      H1876   0.992       .  S
O1874      H1875   0.993       .  S
C1877      C1878   1.404       .  A
C1877      C1882   1.408       .  A
C1878      C1879   1.406       .  A
C1878      H1883   1.083       .  S
C1879      C1880   1.413       .  A
C1879      O1884   1.375       .  S
C1880      C1881   1.410       .  A
C1881      C1882   1.400       .  A
C1881      H1885   1.080       .  S
C1882      O1886   1.372       .  S
O1884      H1888   0.991       .  S
O1886      H1887   0.991       .  S
C1889      C1890   1.403       .  A
C1889      C1894   1.409       .  A
C1890      C1891   1.399       .  A
C1890      H1895   1.084       .  S
C1891      C1892   1.408       .  A
C1891      O1896   1.373       .  S
C1892      C1893   1.402       .  A
C1893      C1894   1.403       .  A
C1893      H1897   1.083       .  S
C1894      O1898   1.371       .  S
O1896      H1900   0.992       .  S
O1898      H1899   0.991       .  S
C1901      C1902   1.406       .  A
C1901      C1906   1.412       .  A
C1902      C1903   1.407       .  A
C1902      H1907   1.083       .  S
C1903      C1904   1.414       .  A
C1903      O1908   1.371       .  S
C1904      C1905   1.404       .  A
C1905      C1906   1.402       .  A
C1905      H1909   1.083       .  S
C1906      O1910   1.372       .  S
O1908      H1912   0.992       .  S
O1910      H1911   0.992       .  S
C1913      C1914   1.404       .  A
C1913      C1918   1.415       .  A
C1914      C1915   1.404       .  A
C1914      H1919   1.083       .  S
C1915      C1916   1.414       .  A
C1915      O1920   1.371       .  S
C1916      C1917   1.406       .  A
C1917      C1918   1.407       .  A
C1917      H1921   1.083       .  S
C1918      O1922   1.371       .  S
O1920      H1924   0.992       .  S
O1922      H1923   0.992       .  S
C1925      C1926   1.406       .  A
C1926      C1927   1.415       .  A
C1926      H1931   1.084       .  S
C1927      C1928   1.418       .  A
C1927      O1932   1.372       .  S
C1929      C1930   1.396       .  A
C1929      H1933   1.082       .  S
C1930      O1934   1.372       .  S
O1932      H1936   0.993       .  S
O1934      H1935   0.992       .  S
