geometry optimzed in LAMMPS
_audit_creation_date              2020-12-01 
_audit_creation_method            'lammps2cif' 
_symmetry_space_group_name_H-M    'P1' 
_symmetry_Int_Tables_number       1 
_symmetry_cell_setting            triclinic 
loop_ 
_symmetry_equiv_pos_as_xyz 
  x,y,z 
_cell_length_a                    22.97262244 
_cell_length_b                    33.41675796732054 
_cell_length_c                    48.26351772078974 
_cell_angle_alpha                 89.09698247924135 
_cell_angle_beta                  98.89787813820386 
_cell_angle_gamma                 91.83839914006263 
loop_ 
_atom_site_label 
_atom_site_type_symbol 
_atom_site_fract_x 
_atom_site_fract_y 
_atom_site_fract_z 
_atom_site_charge 
O1          O  0.15261154  0.74730833  0.27864036    -0.80600
O2          O  0.11481626  0.56468335  0.25314143    -0.65300
O3          O  0.09253426  0.67775418  0.25116536    -1.11900
C4          C  0.04463345  0.65862726  0.33744779     1.06300
O5          O  0.06409907  0.54456747  0.28742848    -0.78500
O6          O  0.98609444  0.60209063  0.27079442    -0.66100
Ni7        Ni  0.14937756  0.71630465  0.24234034     1.34900
C8          C  0.96367291  0.63599981  0.26503050     0.85000
O9          O  0.11171405  0.62391391  0.21351884    -0.79100
O10         O  0.14855719  0.68697854  0.20661460    -0.89300
C11         C  0.09217871  0.53725334  0.26748100     0.84600
O12         O  0.22161886  0.69040957  0.25620466    -0.67500
O13         O  0.00999077  0.63615577  0.32140348    -0.86800
C14         C  0.23331631  0.65369178  0.25432809     0.85400
C15         C  0.13287637  0.65079008  0.19830636     1.07000
H16         H  0.13787049  0.62295685  0.30281520     0.38800
O17         O  0.10021390  0.62567037  0.29096486    -1.09500
O18         O  0.99206765  0.66880338  0.27359377    -0.66100
Ni19       Ni  0.07780053  0.68103240  0.28773495     1.26300
O20         O  0.19442829  0.62590094  0.25701959    -0.66400
O21         O  0.07252496  0.68558719  0.32661906    -0.78600
C22         C  0.10793834  0.75533740  0.29085081     0.84800
O23         O  0.06092912  0.73544002  0.28351164    -0.65800
Ni24       Ni  0.03998506  0.59193968  0.30383917     1.27400
Ni25       Ni  0.10732124  0.62239475  0.25209251     1.26100
H26         H  0.05665952  0.68215309  0.23828519     0.39300
C27         C  0.86016585  0.51980306  0.41785473     0.30300
C28         C  0.95071597  0.56376196  0.40186753     0.30300
C29         C  0.84381397  0.55168912  0.39365973    -0.05900
C30         C  0.89935042  0.54344642  0.44179422    -0.06700
C31         C  0.90752152  0.49510185  0.40634517    -0.06600
C32         C  0.89050609  0.57362927  0.38625643    -0.05900
C33         C  0.94352529  0.56847592  0.43259243    -0.06700
C34         C  0.95456517  0.51799676  0.39944496    -0.06600
C35         C  0.87008493  0.60122876  0.36576800    -0.32000
N36         N  0.81036824  0.59747823  0.35946907     0.14500
C37         C  0.79475977  0.56591961  0.37578778    -0.32000
H38         H  0.75085901  0.55312213  0.37449405     0.16500
C39         C  0.99080290  0.57057204  0.45355781    -0.30900
N40         N  0.98244246  0.54493457  0.47428101     0.13300
C41         C  0.92755180  0.52778795  0.46733594    -0.30900
C42         C  0.99730097  0.49213569  0.39502755    -0.31200
N43         N  0.97657456  0.45376218  0.39573850     0.13800
H44         H  0.04060716  0.50114864  0.39121620     0.16400
C45         C  0.92158448  0.45526375  0.40288126    -0.31200
H46         H  0.89367004  0.42909542  0.40443206     0.16400
H47         H  0.91345273  0.50044008  0.47699973     0.16400
H48         H  0.89842514  0.62187872  0.35643894     0.16500
H49         H  0.03418623  0.58163247  0.45037580     0.16400
O50         O  0.54010355  0.31714179  0.33407154    -0.80600
O51         O  0.56823473  0.46552183  0.25455728    -0.65300
O52         O  0.59177198  0.36759745  0.29552107    -1.11900
C53         C  0.68204422  0.44507989  0.37073559     1.06300
O54         O  0.63413838  0.50665508  0.27919446    -0.78500
O55         O  0.71267402  0.44897460  0.29768578    -0.66100
Ni56       Ni  0.52824559  0.32865509  0.29332671     1.34900
C57         C  0.72878634  0.41365943  0.30466352     0.85000
O58         O  0.56190516  0.38984677  0.24031088    -0.79100
O59         O  0.50861690  0.33672355  0.25235560    -0.89300
C60         C  0.59562722  0.49900154  0.25809155     0.84600
O61         O  0.46717610  0.36391993  0.29831988    -0.67500
O62         O  0.69826473  0.46618450  0.35117375    -0.86800
C63         C  0.45439750  0.39558028  0.28420181     0.85400
C64         C  0.52424840  0.36158852  0.23396760     1.07000
H65         H  0.56561702  0.45182829  0.31719604     0.38800
O66         O  0.60009985  0.44117931  0.31111110    -1.09500
O67         O  0.70087396  0.39058445  0.32043240    -0.66100
Ni68       Ni  0.61949984  0.39159200  0.33066675     1.26300
O69         O  0.49423715  0.41813465  0.27567508    -0.66400
O70         O  0.64534294  0.41610555  0.36621360    -0.78600
C71         C  0.58401973  0.32068641  0.35395179     0.84800
O72         O  0.62999464  0.34108937  0.34992889    -0.65800
Ni73       Ni  0.66220119  0.48191432  0.31447549     1.27400
Ni74       Ni  0.57912328  0.41636141  0.27504907     1.26100
H75         H  0.62388404  0.35450909  0.28895101     0.39300
O76         O  0.13244866  0.48650863  0.24372459    -0.80600
O77         O  0.11059408  0.30963122  0.21509178    -0.65300
O78         O  0.06882783  0.41704149  0.22318029    -1.11900
C79         C  0.04873613  0.36820138  0.31285748     1.06300
O80         O  0.02126396  0.29177842  0.22254824    -0.78500
O81         O  0.95289529  0.34335010  0.25099984    -0.66100
Ni82       Ni  0.11412754  0.45928825  0.20872680     1.34900
C83         C  0.94271459  0.37915355  0.25718979     0.85000
O84         O  0.10340344  0.37016970  0.18055809    -0.79100
O85         O  0.09816801  0.43589968  0.17234938    -0.89300
C86         C  0.06501129  0.28748965  0.20890793     0.84600
O87         O  0.19141694  0.43726957  0.21660983    -0.67500
O88         O  0.02942508  0.33566325  0.29973584    -0.86800
C89         C  0.20954348  0.40570141  0.22975328     0.85400
C90         C  0.10005480  0.40001338  0.16416859     1.07000
H91         H  0.11775628  0.34896776  0.26679328     0.38800
O92         O  0.08104327  0.35630890  0.25553090    -1.09500
O93         O  0.98309823  0.40680724  0.25938517    -0.66100
Ni94       Ni  0.06892498  0.41058432  0.26256218     1.26300
O95         O  0.17523191  0.37552706  0.23238821    -0.66400
O96         O  0.07020105  0.39897850  0.30123665    -0.78600
C97         C  0.09594526  0.49481350  0.25973734     0.84800
O98         O  0.06230503  0.46755347  0.26837070    -0.65800
Ni99       Ni  0.02550848  0.31527945  0.26122615     1.27400
Ni100      Ni  0.09264073  0.36373833  0.21840887     1.26100
H101        H  0.02853098  0.41917960  0.21402437     0.39300
C102        C  0.22976909  0.44349149  0.09270416     0.30300
C103        C  0.31904211  0.49438446  0.08241525     0.30300
C104        C  0.29108280  0.43182801  0.10731123    -0.05900
C105        C  0.23924243  0.44660999  0.06217701    -0.06700
C106        C  0.22707992  0.48711795  0.10277485    -0.06600
C107        C  0.33715083  0.45751524  0.10234668    -0.05900
C108        C  0.28160013  0.47523776  0.05619216    -0.06700
C109        C  0.27148715  0.51326318  0.09728206    -0.06600
C110        C  0.38629712  0.44447337  0.12049750    -0.32000
N111        N  0.37215432  0.41102601  0.13523598     0.14500
C112        C  0.31324341  0.40423862  0.12748827    -0.32000
H113        H  0.28679171  0.38261662  0.13681931     0.16500
C114        C  0.25448522  0.49341875  0.03153809    -0.30900
N115        N  0.20160098  0.47455656  0.02202995     0.13300
C116        C  0.19572405  0.44387880  0.03972994    -0.30900
C117        C  0.26150926  0.54964347  0.10930186    -0.31200
N118        N  0.21258867  0.54625084  0.12208622     0.13800
H119        H  0.28875066  0.57643621  0.10934869     0.16400
C120        C  0.19436920  0.50711525  0.11966345    -0.31200
H121        H  0.16146940  0.49297849  0.13038375     0.16400
H122        H  0.15528119  0.42702609  0.04027220     0.16400
H123        H  0.42848238  0.46015050  0.12408839     0.16500
H124        H  0.26744374  0.52269630  0.02428774     0.16400
O125        O  0.54230218  0.52410600  0.21627048    -0.80600
O126        O  0.53133266  0.69599965  0.15347377    -0.65300
O127        O  0.56840674  0.59387734  0.18735352    -1.11900
C128        C  0.65291974  0.66508232  0.26653953     1.06300
O129        O  0.62154080  0.72077002  0.16837599    -0.78500
O130        O  0.69811215  0.67179515  0.19850066    -0.66100
Ni131      Ni  0.50504273  0.55416157  0.18469497     1.34900
C132        C  0.71562080  0.64093972  0.21232675     0.85000
O133        O  0.51616158  0.62119173  0.13442932    -0.79100
O134        O  0.45910806  0.57676354  0.15192063    -0.89300
C135        C  0.57645683  0.71696197  0.14900880     0.84600
O136        O  0.46473198  0.58510314  0.20804222    -0.67500
O137        O  0.66732073  0.69207108  0.24906147    -0.86800
C138        C  0.44465941  0.61987637  0.20230572     0.85400
C139        C  0.47762753  0.59312308  0.13105765     1.07000
H140        H  0.54624553  0.67798891  0.21424980     0.38800
O141        O  0.57718627  0.66604111  0.20603973    -1.09500
O142        O  0.67859417  0.61643100  0.22156492    -0.66100
Ni143      Ni  0.59317162  0.61586625  0.22397623     1.26300
O144        O  0.46620123  0.64339715  0.18433486    -0.66400
O145        O  0.61184342  0.63944457  0.25950054    -0.78600
C146        C  0.58099058  0.53126228  0.23746546     0.84800
O147        O  0.60640720  0.56526453  0.24217799    -0.65800
Ni148      Ni  0.64007542  0.70536950  0.20859573     1.27400
Ni149      Ni  0.54521261  0.64441005  0.17050344     1.26100
H150        H  0.60149694  0.58394758  0.17964205     0.39300
O151        O  0.52707239  0.24683374  0.47946903    -0.80600
O152        O  0.56881319  0.06840503  0.00877044    -0.65300
O153        O  0.57937077  0.17943297  0.50678920    -1.11900
C154        C  0.62201852  0.16068803  0.41538172     1.06300
O155        O  0.62714997  0.05453960  0.48083915    -0.78500
O156        O  0.69219263  0.11307267  0.46414691    -0.66100
Ni157      Ni  0.52524010  0.21575704  0.51559616     1.34900
C158        C  0.70979361  0.13939201  0.48266329     0.85000
O159        O  0.57558713  0.12638155  0.04785327    -0.79100
O160        O  0.52958017  0.18485768  0.05189171    -0.89300
C161        C  0.60394205  0.04497620  0.99939867     0.84600
O162        O  0.45303989  0.18761426  0.50075779    -0.67500
O163        O  0.60392380  0.12472446  0.41733439    -0.86800
C164        C  0.44097180  0.15083628  0.50528321     0.85400
C165        C  0.54755570  0.14994372  0.06140976     1.07000
H166        H  0.52938639  0.12755051  0.45803300     0.38800
O167        O  0.56914097  0.12790945  0.46815265    -1.09500
O168        O  0.67683308  0.16755099  0.48756956    -0.66100
Ni169      Ni  0.59835453  0.18211951  0.47065007     1.26300
O170        O  0.47943424  0.12410859  0.50425049    -0.66400
O171        O  0.62186583  0.18587645  0.43456706    -0.78600
C172        C  0.57272602  0.25537828  0.46733921     0.84800
O173        O  0.61930694  0.23654670  0.47493350    -0.65800
Ni174      Ni  0.61416714  0.09163293  0.45027280     1.27400
Ni175      Ni  0.56587951  0.12434245  0.50740091     1.26100
H176        H  0.61464640  0.18509417  0.52002438     0.39300
C177        C  0.83733328  0.04303575  0.33322317     0.30300
C178        C  0.76354255  0.09808319  0.34808419     0.30300
C179        C  0.86717233  0.08322657  0.34528711    -0.05900
C180        C  0.78677913  0.05570131  0.30957552    -0.06700
C181        C  0.80190600  0.02895960  0.35678800    -0.06600
C182        C  0.82870673  0.11186446  0.35052337    -0.05900
C183        C  0.74830387  0.08444546  0.31762796    -0.06700
C184        C  0.76361932  0.05731137  0.36394057    -0.06600
C185        C  0.86031473  0.14091936  0.36720438    -0.32000
N186        N  0.91586306  0.12912795  0.37640152     0.14500
C187        C  0.91954930  0.09308426  0.36355320    -0.32000
H188        H  0.95530514  0.07285583  0.36903886     0.16500
C189        C  0.69283286  0.07461472  0.30359899    -0.30900
N190        N  0.69519280  0.04369049  0.28643633     0.13300
C191        C  0.75128881  0.03088420  0.29044273    -0.30900
C192        C  0.71628008  0.03603151  0.37236533    -0.31200
N193        N  0.72432416  0.99580445  0.37198061     0.13800
H194        H  0.67710224  0.04996060  0.37690297     0.16400
C195        C  0.77638731  0.99183096  0.36235965    -0.31200
H196        H  0.79616227  0.96385178  0.36031889     0.16400
H197        H  0.76434744  0.00316974  0.28224418     0.16400
H198        H  0.84043219  0.16617558  0.37492749     0.16500
H199        H  0.65173080  0.08451247  0.30882865     0.16400
O200        O  0.12326566  0.82129216  0.42128878    -0.80600
O201        O  0.11989678  0.97189163  0.99207120    -0.65300
O202        O  0.07822427  0.87401546  0.45775251    -1.11900
C203        C  0.99802107  0.95453369  0.37975038     1.06300
O204        O  0.03346215  0.00243250  0.47573327    -0.78500
O205        O  0.95404682  0.95701936  0.44472935    -0.66100
Ni206      Ni  0.13351622  0.83221944  0.46209288     1.34900
C207        C  0.93863008  0.92020404  0.44370370     0.85000
O208        O  0.12420567  0.89795808  0.00947255    -0.79100
O209        O  0.16229491  0.83934886  0.00020997    -0.89300
C210        C  0.08598059  0.00098981  0.99153477     0.84600
O211        O  0.20175880  0.86321940  0.45767537    -0.67500
O212        O  0.99896331  0.98218701  0.39748194    -0.86800
C213        C  0.21948516  0.89639284  0.46862555     0.85400
C214        C  0.15505387  0.86785285  0.01700092     1.07000
H215        H  0.10949497  0.95609823  0.43197756     0.38800
O216        O  0.07494586  0.94628600  0.43941154    -1.09500
O217        O  0.96958807  0.89379829  0.43381512    -0.66100
Ni218      Ni  0.04888274  0.89627267  0.42165003     1.26300
O219        O  0.18383139  0.92330590  0.47344874    -0.66400
O220        O  0.01759883  0.91978430  0.38590746    -0.78600
C221        C  0.08177108  0.82574486  0.40035516     0.84800
O222        O  0.03602276  0.84503053  0.40361359    -0.65800
Ni223      Ni  0.01973511  0.98890181  0.43678185     1.27400
Ni224      Ni  0.10278855  0.92186714  0.97412464     1.26100
H225        H  0.05190991  0.86009857  0.96508946     0.39300
O226        O  0.58546120  0.99770095  0.03222453    -0.80600
O227        O  0.54761665  0.81069227  0.03206051    -0.65300
O228        O  0.61100403  0.91661985  0.03763643    -1.11900
C229        C  0.61503557  0.89441499  0.44325176     1.06300
O230        O  0.62982752  0.78967444  0.02149016    -0.78500
O231        O  0.70726996  0.84376442  0.00065550    -0.66100
Ni232      Ni  0.56190574  0.95384169  0.05308139     1.34900
C233        C  0.72781388  0.87899711  0.99791839     0.85000
O234        O  0.57312759  0.85839359  0.07464847    -0.79100
O235        O  0.53029254  0.91595068  0.07705341    -0.89300
C236        C  0.58802459  0.78618305  0.03658524     0.84600
O237        O  0.49601547  0.94531969  0.02400132    -0.67500
O238        O  0.62599774  0.85738324  0.45063116    -0.86800
C239        C  0.47174251  0.91170245  0.01667386     0.85400
C240        C  0.54095013  0.88068230  0.08582369     1.07000
H241        H  0.54761410  0.86302188  0.98687470     0.38800
O242        O  0.58605492  0.86533462  0.99822364    -1.09500
O243        O  0.69602660  0.90996521  0.99909172    -0.66100
Ni244      Ni  0.61053989  0.91949508  0.99761550     1.26300
O245        O  0.49652057  0.87887290  0.02497399    -0.66400
O246        O  0.60199405  0.92075243  0.45984811    -0.78600
C247        C  0.59943633  0.00414348  0.51044336     0.84800
O248        O  0.62350034  0.97724391  0.49817134    -0.65800
Ni249      Ni  0.63032548  0.82385904  0.98621226     1.27400
Ni250      Ni  0.57825018  0.86304443  0.03590628     1.26100
H251        H  0.65073118  0.91730938  0.04778079     0.39300
C252        C  0.41099572  0.93410240  0.15766846     0.30300
C253        C  0.34020615  0.99165791  0.17298074     0.30300
C254        C  0.34591973  0.92086581  0.15760336    -0.05900
C255        C  0.42867365  0.94857832  0.18765940    -0.06700
C256        C  0.40960787  0.97435087  0.14099971    -0.06600
C257        C  0.30873232  0.95145171  0.16205821    -0.05900
C258        C  0.39174977  0.97794765  0.19621705    -0.06700
C259        C  0.37290488  0.00304315  0.14839856    -0.06600
C260        C  0.25896981  0.94417687  0.14170667    -0.32000
N261        N  0.26191610  0.90818045  0.12927089     0.14500
C262        C  0.31304866  0.89243767  0.14090554    -0.32000
H263        H  0.33011302  0.86590507  0.13285963     0.16500
C264        C  0.42789067  0.99941724  0.21704414    -0.30900
N265        N  0.48288349  0.98460738  0.22099737     0.13300
C266        C  0.48421333  0.95542104  0.20237083    -0.30900
C267        C  0.39040152  0.03899951  0.13741697    -0.31200
N268        N  0.43888584  0.03444371  0.12506633     0.13800
H269        H  0.37080225  0.06718736  0.13944059     0.16400
C270        C  0.45093974  0.99466589  0.12733185    -0.31200
H271        H  0.48798141  0.98077391  0.12064145     0.16400
H272        H  0.52485053  0.94488284  0.19707752     0.16400
H273        H  0.22738386  0.96631254  0.13356343     0.16500
H274        H  0.41644959  0.02549564  0.22744834     0.16400
O275        O  0.13819335  0.02541871  0.03373300    -0.80600
O276        O  0.13812177  0.19120478  0.10020350    -0.65300
O277        O  0.10671860  0.08988087  0.06442250    -1.11900
C278        C  0.03592412  0.16348625  0.48666338     1.06300
O279        O  0.05015123  0.21230443  0.08125894    -0.78500
O280        O  0.97749241  0.17507607  0.03792658    -0.66100
Ni281      Ni  0.16896369  0.05233650  0.06780137     1.34900
C282        C  0.96299162  0.13903603  0.03164328     0.85000
O283        O  0.15127213  0.11549577  0.11853559    -0.79100
O284        O  0.20896386  0.07211986  0.10300742    -0.89300
C285        C  0.09113212  0.20943021  0.10262751     0.84600
O286        O  0.21323893  0.08757194  0.04767939    -0.67500
O287        O  0.03742059  0.19485625  0.50216095    -0.86800
C288        C  0.23417321  0.12189670  0.05542946     0.85400
C289        C  0.18943495  0.08864998  0.12295711     1.07000
H290        H  0.13747671  0.17316380  0.03887595     0.38800
O291        O  0.10329323  0.16247726  0.04596679    -1.09500
O292        O  0.00056294  0.11181615  0.03080096    -0.66100
Ni293      Ni  0.07089140  0.10681672  0.53280068     1.26300
O294        O  0.21038762  0.14315735  0.07276635    -0.66400
O295        O  0.04663654  0.12857260  0.49660847    -0.78600
C296        C  0.08849015  0.02915175  0.51650445     0.84800
O297        O  0.05052767  0.05538949  0.51765669    -0.65800
Ni298      Ni  0.04964601  0.20515106  0.04044686     1.27400
Ni299      Ni  0.12792304  0.14010742  0.08230900     1.26100
H300        H  0.07284905  0.07790002  0.07136304     0.39300
C301        C  0.27130375  0.09065043  0.16242447    -0.12000
C302        C  0.21511547  0.07570642  0.15140517     0.05000
C303        C  0.19579353  0.03902851  0.16212556    -0.07300
C304        C  0.23706019  0.01411381  0.17783598    -0.08000
C305        C  0.29777483  0.02409544  0.18053645    -0.02600
C306        C  0.31161595  0.06579098  0.17886989     0.04200
N307        N  0.36482349  0.08340630  0.19370038     0.66700
H308        H  0.28528039  0.12049224  0.15663375     0.15600
H309        H  0.22249484  0.98433214  0.18337196     0.15400
N310        N  0.13665076  0.02429140  0.15393107     0.74500
O311        O  0.36847237  0.08680404  0.21990982    -0.39000
O312        O  0.39530072  0.10743466  0.18096798    -0.38900
O313        O  0.12401437  0.00296861  0.13236149    -0.39600
O314        O  0.10013311  0.02641181  0.17083319    -0.39700
C315        C  0.42004860  0.89621229  0.11499406    -0.12000
C316        C  0.44381374  0.90322680  0.14325106     0.05000
C317        C  0.49633540  0.88324782  0.15420709    -0.07300
C318        C  0.53037319  0.86798534  0.13506927    -0.08000
C319        C  0.50644367  0.86511289  0.10663597    -0.02600
C320        C  0.44616670  0.87072211  0.09873910     0.04200
N321        N  0.41550515  0.85760346  0.07200755     0.66700
H322        H  0.38023827  0.91044491  0.10546965     0.15600
H323        H  0.57538038  0.85942169  0.14207176     0.15400
N324        N  0.51261953  0.87450476  0.18341200     0.74500
O325        O  0.43264947  0.82711289  0.06085893    -0.39000
O326        O  0.36586295  0.87134852  0.06217285    -0.38900
O327        O  0.47738299  0.85373072  0.19576108    -0.39600
O328        O  0.56616109  0.87735883  0.19439385    -0.39700
C329        C  0.87463944  0.87207143  0.46908487    -0.12000
C330        C  0.88274660  0.90938059  0.45594118     0.05000
C331        C  0.87474231  0.92763372  0.98555200    -0.07300
C332        C  0.82135862  0.91954205  0.99582243    -0.08000
C333        C  0.78946466  0.88362949  0.99038798    -0.02600
C334        C  0.82658188  0.86428876  0.48403829     0.04200
N335        N  0.82188585  0.82609064  0.49739223     0.66700
H336        H  0.90680720  0.84919130  0.46859887     0.15600
H337        H  0.80484462  0.94180155  0.00848180     0.15400
N338        N  0.90624606  0.96373022  0.99476672     0.74500
O339        O  0.81019495  0.79504339  0.48278473    -0.39000
O340        O  0.82590427  0.82362751  0.52373888    -0.38900
O341        O  0.88036858  0.99651544  0.99077373    -0.39600
O342        O  0.95164726  0.96169593  0.01310920    -0.39700
C343        C  0.37960063  0.87310291  0.99935270    -0.12000
C344        C  0.41086903  0.90973883  0.99962325     0.05000
C345        C  0.37965105  0.93784123  0.48497929    -0.07300
C346        C  0.31801153  0.93520031  0.47483503    -0.08000
C347        C  0.28428829  0.90045468  0.47914018    -0.02600
C348        C  0.32064473  0.86887696  0.98718302     0.04200
N349        N  0.29318417  0.83003046  0.98846072     0.66700
H350        H  0.40078463  0.84685393  0.00908074     0.15600
H351        H  0.29679652  0.95936507  0.46233999     0.15400
N352        N  0.41468660  0.96997138  0.47496980     0.74500
O353        O  0.29696340  0.80550173  0.96924666    -0.39000
O354        O  0.28206650  0.81682877  0.01177856    -0.38900
O355        O  0.46789842  0.96462049  0.47272400    -0.39600
O356        O  0.38986600  0.99993370  0.46264799    -0.39700
C357        C  0.21936891  0.90935995  0.05097321    -0.12000
C358        C  0.18949032  0.87214708  0.04569310     0.05000
C359        C  0.18573454  0.84593763  0.06857358    -0.07300
C360        C  0.20899670  0.85835913  0.09610266    -0.08000
C361        C  0.23443650  0.89706656  0.10129944    -0.02600
C362        C  0.24091795  0.92212279  0.07814179     0.04200
N363        N  0.26935634  0.96079290  0.08174454     0.66700
H364        H  0.22370377  0.92981762  0.03367807     0.15600
H365        H  0.20625781  0.83805380  0.11359801     0.15400
N366        N  0.15689587  0.80756042  0.06448708     0.74500
O367        O  0.32154075  0.96562433  0.07688408    -0.39000
O368        O  0.23822838  0.99108398  0.08235611    -0.38900
O369        O  0.18742176  0.77661968  0.06656124    -0.39600
O370        O  0.10234658  0.80411114  0.06532026    -0.39700
C371        C  0.56641405  0.97556657  0.25857551    -0.12000
C372        C  0.53505757  0.00035458  0.23816121     0.05000
C373        C  0.55850398  0.03862399  0.23302754    -0.07300
C374        C  0.61202865  0.05184800  0.24869687    -0.08000
C375        C  0.64377845  0.02704343  0.26905633    -0.02600
C376        C  0.62018588  0.98865554  0.27416782     0.04200
N377        N  0.64841826  0.96351342  0.29602349     0.66700
H378        H  0.54867694  0.94592864  0.26245640     0.15600
H379        H  0.62938995  0.08161990  0.24490171     0.15400
N380        N  0.52921448  0.06378384  0.21142007     0.74500
O381        O  0.62893320  0.96169480  0.31906977    -0.39000
O382        O  0.68012278  0.93587427  0.28985292    -0.38900
O383        O  0.50653333  0.09560557  0.21773733    -0.39600
O384        O  0.52390094  0.05350239  0.18608951    -0.39700
C385        C  0.86847517  0.97186102  0.32601431    -0.12000
C386        C  0.88069395  0.01306279  0.32409079     0.05000
C387        C  0.94045187  0.02418116  0.32386779    -0.07300
C388        C  0.98381756  0.00023971  0.33906414    -0.08000
C389        C  0.96723917  0.96419936  0.35149344    -0.02600
C390        C  0.91014939  0.94770810  0.34219219     0.04200
N391        N  0.89072801  0.90995828  0.35258458     0.66700
H392        H  0.82383803  0.96040899  0.31995894     0.15600
H393        H  0.02893752  0.01155857  0.34374266     0.15400
N394        N  0.95650751  0.05991686  0.30951229     0.74500
O395        O  0.89616122  0.90327635  0.37863661    -0.39000
O396        O  0.85972493  0.88599288  0.33605815    -0.38900
O397        O  0.00781967  0.07533476  0.31503827    -0.39600
O398        O  0.92191278  0.07302553  0.28869291    -0.39700
C399        C  0.63181446  0.97441944  0.38967130    -0.12000
C400        C  0.68580769  0.96416636  0.38166084     0.05000
C401        C  0.70186116  0.92321528  0.38605698    -0.07300
C402        C  0.67319045  0.89814887  0.40385138    -0.08000
C403        C  0.62544250  0.91129277  0.41554737    -0.02600
C404        C  0.60100538  0.94825545  0.40565085     0.03200
N405        N  0.54631006  0.96072958  0.41287581     0.66700
H406        H  0.61348048  0.00338796  0.38434805     0.15600
H407        H  0.69033754  0.86884866  0.40964794     0.15400
N408        N  0.74439048  0.90534523  0.37188936     0.74500
O409        O  0.54662880  0.98794653  0.43073690    -0.39000
O410        O  0.49929591  0.95288397  0.39635886    -0.38900
O411        O  0.78207239  0.88291875  0.38549427    -0.39600
O412        O  0.73369783  0.90244709  0.34553745    -0.39700
C413        C  0.97161721  0.18825881  0.44300314    -0.12000
C414        C  0.01798902  0.16480954  0.45544910     0.05000
C415        C  0.03911936  0.13588912  0.43864540    -0.07300
C416        C  0.00665465  0.12532579  0.41242385    -0.08000
C417        C  0.95556954  0.14572012  0.40081576    -0.02600
C418        C  0.94298526  0.18078336  0.41541703     0.04200
N419        N  0.90660289  0.21152175  0.40198711     0.66700
H420        H  0.95713430  0.21241351  0.45475824     0.15600
H421        H  0.02208868  0.10103353  0.40125699     0.15400
N422        N  0.09374913  0.11692681  0.44828471     0.74500
O423        O  0.86056924  0.22019652  0.41157577    -0.39000
O424        O  0.92926739  0.23714187  0.38705077    -0.38900
O425        O  0.09568711  0.07927753  0.45008111    -0.39600
O426        O  0.13973024  0.13799358  0.45627830    -0.39700
C427        C  0.35224809  0.17590289  0.01790509    -0.12000
C428        C  0.38303886  0.13968684  0.51576586     0.05000
C429        C  0.37376991  0.10220477  0.52895100    -0.07300
C430        C  0.32647267  0.09584734  0.54409450    -0.08000
C431        C  0.29047646  0.13350070  0.04447109    -0.02600
C432        C  0.30184843  0.17053135  0.03158799     0.04200
N433        N  0.26201658  0.20250541  0.03150719     0.66700
H434        H  0.36037069  0.20499201  0.00880849     0.15600
H435        H  0.32193937  0.06680755  0.55399694     0.15400
N436        N  0.41117637  0.06941903  0.52700926     0.74500
O437        O  0.26165750  0.22243403  0.05346904    -0.39000
O438        O  0.22379210  0.20862022  0.01024410    -0.38900
O439        O  0.45308039  0.06320156  0.54661966    -0.39600
O440        O  0.39181200  0.04095449  0.51102308    -0.39700
C441        C  0.80705157  0.10478308  0.49461657    -0.12000
C442        C  0.77106392  0.13681149  0.49910121     0.05000
C443        C  0.79863747  0.15291414  0.02337177    -0.07300
C444        C  0.85782899  0.14962732  0.03587106    -0.08000
C445        C  0.89896844  0.13055565  0.02223931    -0.02600
C446        C  0.86528146  0.10205689  0.50886936     0.04200
N447        N  0.90203476  0.07247329  0.50025072     0.66700
H448        H  0.79099962  0.08251122  0.47897321     0.15600
H449        H  0.87251036  0.16408913  0.05578698     0.15400
N450        N  0.75978040  0.17382870  0.03807040     0.74500
O451        O  0.90692111  0.03919009  0.51298017    -0.39000
O452        O  0.92304401  0.07753311  0.47773767    -0.38900
O453        O  0.73570832  0.15556614  0.05659852    -0.39600
O454        O  0.76020341  0.21159535  0.03712823    -0.39700
C455        C  0.63851125  0.16325887  0.36577201    -0.12000
C456        C  0.65958649  0.16930763  0.39428176     0.05000
C457        C  0.71910371  0.16298677  0.40421450    -0.07300
C458        C  0.74722431  0.13592080  0.38986353    -0.08000
C459        C  0.72758051  0.12826621  0.36130376    -0.02600
C460        C  0.67605543  0.14775136  0.34836694     0.04200
N461        N  0.66575655  0.15739910  0.31907855     0.66700
H462        H  0.59411508  0.17152872  0.35716824     0.15600
H463        H  0.78647065  0.12216579  0.40073177     0.15400
N464        N  0.74852104  0.17993108  0.43009361     0.74500
O465        O  0.61435904  0.15338067  0.30550698    -0.39000
O466        O  0.70234690  0.18057719  0.30939797    -0.38900
O467        O  0.79625076  0.16575055  0.44219484    -0.39600
O468        O  0.73371040  0.21363267  0.43767376    -0.39700
C469        C  0.55999231  0.09756601  0.09852667    -0.12000
C470        C  0.52915292  0.13138669  0.08727960     0.05000
C471        C  0.47212436  0.13645612  0.09396243    -0.07300
C472        C  0.44342688  0.10394798  0.10584814    -0.08000
C473        C  0.47178980  0.06757125  0.11386353    -0.02600
C474        C  0.53245606  0.06598453  0.11155307     0.04200
N475        N  0.56712378  0.03242545  0.12133894     0.66700
H476        H  0.60489751  0.09381240  0.09488498     0.15600
H477        H  0.39791760  0.10723454  0.10823232     0.15400
N478        N  0.44284091  0.17393297  0.08886453     0.74500
O479        O  0.57923720  0.00774859  0.10368446    -0.39000
O480        O  0.59921470  0.03425591  0.14501653    -0.38900
O481        O  0.38755660  0.17504092  0.08725232    -0.39600
O482        O  0.47250841  0.20642581  0.09216376    -0.39700
C483        C  0.63436321  0.73753275  0.10972940    -0.12000
C484        C  0.57960088  0.73369373  0.11973078     0.05000
C485        C  0.52857669  0.74219350  0.10042564    -0.07300
C486        C  0.53303983  0.75431883  0.07265709    -0.08000
C487        C  0.58776303  0.76061925  0.06298556    -0.02600
C488        C  0.63884575  0.75087592  0.08195375     0.04200
N489        N  0.69583504  0.75530506  0.07380614     0.66700
H490        H  0.67437281  0.73018874  0.12362784     0.15600
H491        H  0.49275869  0.76142249  0.05889985     0.15400
N492        N  0.47189936  0.74185410  0.10917419     0.74500
O493        O  0.72490227  0.78779691  0.07856344    -0.39000
O494        O  0.72187007  0.72453834  0.06803507    -0.38900
O495        O  0.45875373  0.77036120  0.12365521    -0.39600
O496        O  0.43146631  0.71868105  0.09746051    -0.39700
C497        C  0.35908773  0.56438524  0.07380466    -0.12000
C498        C  0.36915903  0.52320919  0.07617217     0.05000
C499        C  0.42863304  0.51216335  0.08165957    -0.07300
C500        C  0.46975368  0.53861749  0.09712414    -0.08000
C501        C  0.45313207  0.57719987  0.10321514    -0.02600
C502        C  0.40039981  0.59158733  0.08812725     0.04200
N503        N  0.38608062  0.63269194  0.08880974     0.66700
H504        H  0.31595393  0.57475383  0.06485620     0.15600
H505        H  0.51280619  0.52823549  0.10619988     0.15400
N506        N  0.44678312  0.47490898  0.07169785     0.74500
O507        O  0.38455592  0.65335306  0.06660720    -0.39000
O508        O  0.35997576  0.64473577  0.10813220    -0.38900
O509        O  0.41757984  0.45917670  0.05006424    -0.39600
O510        O  0.49633522  0.46106995  0.08152377    -0.39700
C511        C  0.02835433  0.24381022  0.13422295    -0.12000
C512        C  0.08181802  0.22566724  0.13106804     0.05000
C513        C  0.12526683  0.22370800  0.15544078    -0.07300
C514        C  0.11600612  0.24104676  0.18086894    -0.08000
C515        C  0.06397561  0.26075712  0.18366791    -0.02600
C516        C  0.01928404  0.26126129  0.15986767     0.04200
N517        N  0.96608744  0.28192370  0.16054859     0.66700
H518        H  0.99365627  0.24572842  0.11634102     0.15600
H519        H  0.15164437  0.24077088  0.19844080     0.15400
N520        N  0.18118369  0.20671950  0.15454687     0.74500
O521        O  0.96245995  0.31769844  0.15184345    -0.39000
O522        O  0.91951444  0.26203011  0.16301672    -0.38900
O523        O  0.22347771  0.22919307  0.14937505    -0.39600
O524        O  0.19199760  0.17296357  0.16590005    -0.39700
C525        C  0.08485672  0.42372789  0.11543957    -0.12000
C526        C  0.10482293  0.39367578  0.13472843     0.05000
C527        C  0.14643085  0.36709013  0.12747594    -0.07300
C528        C  0.18149146  0.37957531  0.10772386    -0.08000
C529        C  0.17524885  0.41802271  0.09641162    -0.02600
C530        C  0.11889864  0.43499200  0.09499148     0.04200
N531        N  0.09581560  0.46264173  0.07336921     0.66700
H532        H  0.04733391  0.44126957  0.11819311     0.15600
H533        H  0.21685506  0.36111864  0.10348056     0.15400
N534        N  0.15548605  0.32864016  0.14030637     0.74500
O535        O  0.06005237  0.44918899  0.05292403    -0.39000
O536        O  0.09522151  0.49943075  0.07854855    -0.38900
O537        O  0.14817161  0.29860381  0.12455879    -0.39600
O538        O  0.18755884  0.32563085  0.16388678    -0.39700
C539        C  0.52728048  0.26613429  0.41689408    -0.12000
C540        C  0.56962213  0.27794041  0.43979669     0.05000
C541        C  0.61712534  0.30316391  0.43394496    -0.07300
C542        C  0.62095649  0.31618958  0.40623953    -0.08000
C543        C  0.57928168  0.30390162  0.38312431    -0.02600
C544        C  0.53199357  0.27819960  0.38899346     0.04200
N545        N  0.49024924  0.26172182  0.36678983     0.66700
H546        H  0.49226902  0.24503593  0.42039181     0.15600
H547        H  0.65734443  0.33607296  0.40284582     0.15400
N548        N  0.66261741  0.31561353  0.45601416     0.74500
O549        O  0.50076572  0.22896539  0.35616305    -0.39000
O550        O  0.43853791  0.27454404  0.36246483    -0.38900
O551        O  0.71074698  0.29766455  0.45983120    -0.39600
O552        O  0.65976708  0.34922195  0.46719996    -0.39700
C553        C  0.78245673  0.37111850  0.27390918    -0.12000
C554        C  0.78392247  0.40123366  0.29412849     0.05000
C555        C  0.83602357  0.42525737  0.29995589    -0.07300
C556        C  0.88463559  0.41903516  0.28620878    -0.08000
C557        C  0.88436603  0.38850163  0.26637677    -0.02600
C558        C  0.83181526  0.36447320  0.26020250     0.04200
N559        N  0.82654355  0.33445740  0.23916316     0.66700
H560        H  0.74216951  0.35347533  0.26802231     0.15600
H561        H  0.92425677  0.43727957  0.29234786     0.15400
N562        N  0.84148694  0.45506404  0.32113134     0.74500
O563        O  0.82971021  0.29806938  0.24644112    -0.39000
O564        O  0.80488117  0.34345268  0.21428870    -0.38900
O565        O  0.85668412  0.44480594  0.34637611    -0.39600
O566        O  0.84345857  0.49162734  0.31436409    -0.39700
C567        C  0.37630378  0.42705334  0.24935125    -0.12000
C568        C  0.39054682  0.40326620  0.27368024     0.05000
C569        C  0.34378360  0.38174050  0.28382309    -0.07300
C570        C  0.28615109  0.38235659  0.26882366    -0.08000
C571        C  0.27248251  0.40487083  0.24393217    -0.02600
C572        C  0.31839311  0.42836576  0.23472122     0.04200
N573        N  0.30782458  0.45260090  0.20990296     0.66700
H574        H  0.41083429  0.44360051  0.24074124     0.15600
H575        H  0.25148084  0.36548310  0.27710844     0.15400
N576        N  0.35339663  0.35962495  0.30962953     0.74500
O577        O  0.30194893  0.48974437  0.21213036    -0.39000
O578        O  0.31924568  0.43921463  0.18713690    -0.38900
O579        O  0.34033599  0.37509391  0.33146572    -0.39600
O580        O  0.35948729  0.32226793  0.30907545    -0.39700
C581        C  0.43220371  0.34923414  0.20022106    -0.12000
C582        C  0.49124316  0.36242896  0.20475379     0.05000
C583        C  0.51257748  0.38461551  0.18302471    -0.07300
C584        C  0.47334200  0.39825943  0.15981082    -0.08000
C585        C  0.41217266  0.38976287  0.15690829    -0.02600
C586        C  0.39311492  0.36144064  0.17647834     0.04200
N587        N  0.33514825  0.34383887  0.17308535     0.66700
H588        H  0.41504173  0.33083730  0.21598983     0.15600
H589        H  0.49148176  0.41621840  0.14420787     0.15400
N590        N  0.57410370  0.39381166  0.18418790     0.74500
O591        O  0.30058689  0.35345639  0.18962379    -0.39000
O592        O  0.32535444  0.31138682  0.15990199    -0.38900
O593        O  0.60458132  0.37131427  0.17176696    -0.39600
O594        O  0.59401204  0.42842226  0.19121558    -0.39700
C595        C  0.04930972  0.48907700  0.48327393    -0.12000
C596        C  0.03349229  0.52733441  0.49037616     0.05000
C597        C  0.08711389  0.55195921  0.00625818    -0.07300
C598        C  0.14143224  0.53406941  0.01399439    -0.08000
C599        C  0.14928446  0.49370865  0.00818601    -0.02600
C600        C  0.10674890  0.47542934  0.49168176     0.04200
N601        N  0.12121086  0.43622097  0.48337773     0.66700
H602        H  0.01782452  0.47088260  0.46944075     0.15600
H603        H  0.17688068  0.55159808  0.02589185     0.15400
N604        N  0.08174127  0.59293942  0.01318833     0.74500
O605        O  0.08156740  0.40908121  0.47846361    -0.39000
O606        O  0.17265186  0.42937202  0.47887052    -0.38900
O607        O  0.07038682  0.60114126  0.03717978    -0.39600
O608        O  0.10400365  0.61994517  0.99915996    -0.39700
C609        C  0.70353363  0.49478242  0.40791705    -0.12000
C610        C  0.70995642  0.45548052  0.39919915     0.05000
C611        C  0.75840689  0.43401913  0.41248580    -0.07300
C612        C  0.80578381  0.45515804  0.42806155    -0.08000
C613        C  0.80700870  0.49709901  0.42721807    -0.02600
C614        C  0.75163925  0.51514965  0.42356292     0.04200
N615        N  0.74497413  0.55408033  0.43447413     0.66700
H616        H  0.66387152  0.51077583  0.40021065     0.15600
H617        H  0.84424386  0.43940332  0.43754661     0.15400
N618        N  0.76394714  0.39252119  0.40718737     0.74500
O619        O  0.74981684  0.55796772  0.46069895    -0.39000
O620        O  0.72069662  0.58126415  0.41873800    -0.38900
O621        O  0.78568433  0.38232558  0.38598913    -0.39600
O622        O  0.76092815  0.36743339  0.42675236    -0.39700
C623        C  0.96730921  0.38807623  0.37158603    -0.12000
C624        C  0.00321050  0.41984702  0.38442132     0.05000
C625        C  0.06343525  0.42155761  0.38067445    -0.07300
C626        C  0.08093620  0.39978065  0.35892797    -0.08000
C627        C  0.04133844  0.37361321  0.34256660    -0.02600
C628        C  0.98722263  0.36386979  0.35158337     0.04200
N629        N  0.95056560  0.33156712  0.33909223     0.66700
H630        H  0.92247797  0.38350988  0.37548078     0.15600
H631        H  0.12457423  0.40520953  0.35349984     0.15400
N632        N  0.10650811  0.44624605  0.39787865     0.74500
O633        O  0.90320233  0.33851448  0.32301744    -0.39000
O634        O  0.96795548  0.29611275  0.34239031    -0.38900
O635        O  0.10291079  0.45104969  0.42341939    -0.39600
O636        O  0.14888250  0.46283891  0.38780453    -0.39700
C637        C  0.70911671  0.61335493  0.33594079    -0.12000
C638        C  0.77040928  0.62121466  0.33904943     0.05000
C639        C  0.78951819  0.65239158  0.32143518    -0.07300
C640        C  0.74976716  0.66892833  0.29918366    -0.08000
C641        C  0.68974004  0.65776953  0.29471301    -0.02600
C642        C  0.66929554  0.63152836  0.31479190     0.04200
N643        N  0.60782993  0.62224498  0.31392218     0.66700
H644        H  0.69076681  0.59264589  0.34988299     0.15600
H645        H  0.76664770  0.68993066  0.28480898     0.15400
N646        N  0.84762521  0.66981668  0.32634391     0.74500
O647        O  0.58719992  0.58869955  0.30477633    -0.39000
O648        O  0.57894727  0.64219155  0.32881605    -0.38900
O649        O  0.88152606  0.66534906  0.30849479    -0.39600
O650        O  0.85851744  0.69799364  0.34365468    -0.39700
C651        C  0.14447866  0.79431179  0.36707872    -0.12000
C652        C  0.09001147  0.81022756  0.37137880     0.05000
C653        C  0.04679143  0.81367408  0.34709590    -0.07300
C654        C  0.05606314  0.79839349  0.32099507    -0.08000
C655        C  0.10907445  0.78079864  0.31695710    -0.02600
C656        C  0.15462758  0.78063961  0.34040058     0.04200
N657        N  0.21163159  0.76692937  0.33765113     0.66700
H658        H  0.18019763  0.79285219  0.38453346     0.15600
H659        H  0.02030587  0.79980824  0.30352183     0.15400
N660        N  0.99369712  0.83421944  0.34785932     0.74500
O661        O  0.25043573  0.79199641  0.33194287    -0.39000
O662        O  0.22707348  0.73295446  0.34733418    -0.38900
O663        O  0.98914507  0.86887219  0.33716700    -0.39600
O664        O  0.94756656  0.81434933  0.35110901    -0.39700
C665        C  0.35408608  0.59876077  0.22326032    -0.12000
C666        C  0.39230861  0.63026761  0.21656952     0.05000
C667        C  0.38124351  0.66892718  0.22567239    -0.07300
C668        C  0.33265626  0.67523889  0.24005307    -0.08000
C669        C  0.29251368  0.64387254  0.24546926    -0.02600
C670        C  0.30535006  0.60497698  0.23721218     0.04200
N671        N  0.26880130  0.57108765  0.24223183     0.66700
H672        H  0.36140211  0.56850563  0.21711822     0.15600
H673        H  0.32488488  0.70556482  0.24583835     0.15400
N674        N  0.41890150  0.70222847  0.22071406     0.74500
O675        O  0.22832730  0.55941117  0.22309214    -0.39000
O676        O  0.28529322  0.54801738  0.26269786    -0.38900
O677        O  0.40339287  0.72562293  0.20031891    -0.39600
O678        O  0.46038191  0.71285976  0.23969242    -0.39700
C679        C  0.80136506  0.60533786  0.23969014    -0.12000
C680        C  0.78130367  0.63678513  0.22141852     0.05000
C681        C  0.82347244  0.66747929  0.21664074    -0.07300
C682        C  0.88200879  0.66696794  0.23093839    -0.08000
C683        C  0.90122317  0.63601567  0.24972641    -0.02600
C684        C  0.85991449  0.60456870  0.25360173     0.04200
N685        N  0.87516920  0.57284727  0.27331316     0.66700
H686        H  0.77065728  0.58184345  0.24440263     0.15600
H687        H  0.91271448  0.69101274  0.22719380     0.15400
N688        N  0.80776748  0.70013298  0.19779123     0.74500
O689        O  0.86752494  0.57704068  0.29841558    -0.39000
O690        O  0.88209148  0.53825266  0.26447036    -0.38900
O691        O  0.80035995  0.73408472  0.20755994    -0.39600
O692        O  0.81533749  0.69748162  0.17254906    -0.39700
C693        C  0.00304516  0.63042230  0.40102417    -0.12000
C694        C  0.99889739  0.59005137  0.39249797     0.05000
C695        C  0.03401517  0.57806355  0.37247935    -0.07300
C696        C  0.07804147  0.60468064  0.36621005    -0.08000
C697        C  0.06437950  0.64506599  0.36604033    -0.02600
C698        C  0.03413580  0.65854455  0.38697079     0.04200
N699        N  0.02618450  0.70021984  0.39064439     0.66700
H700        H  0.97599543  0.64099216  0.41573582     0.15600
H701        H  0.10461145  0.59521221  0.35089371     0.15400
N702        N  0.01487319  0.54711228  0.35241268     0.74500
O703        O  0.98213672  0.71680923  0.37682417    -0.39000
O704        O  0.05351872  0.71722943  0.41218573    -0.38900
O705        O  0.96166978  0.54456349  0.34092367    -0.39600
O706        O  0.05239805  0.52671351  0.34279900    -0.39700
C707        C  0.10788105  0.60263358  0.16001271    -0.12000
C708        C  0.14302483  0.63551905  0.17066329     0.05000
C709        C  0.19557396  0.64362598  0.15986127    -0.07300
C710        C  0.21788114  0.61450159  0.14367476    -0.08000
C711        C  0.18626869  0.57797839  0.13632421    -0.02600
C712        C  0.12804431  0.57434087  0.14305342     0.04200
N713        N  0.08747416  0.54264119  0.13313905     0.66700
H714        H  0.06529930  0.59710616  0.16664947     0.15600
H715        H  0.26041652  0.62062739  0.13739404     0.15400
N716        N  0.22543911  0.68161728  0.16440611     0.74500
O717        O  0.07655715  0.51566966  0.15036900    -0.39000
O718        O  0.04847187  0.54982656  0.11239343    -0.38900
O719        O  0.26865625  0.68578374  0.18373761    -0.39600
O720        O  0.20424161  0.71205972  0.15121688    -0.39700
O721        O  0.15015884  0.75387390  0.77498391    -0.80600
O722        O  0.12320928  0.57061215  0.75086179    -0.65300
O723        O  0.09474236  0.68277418  0.74818835    -1.11900
C724        C  0.04431046  0.66252673  0.83383309     1.06300
O725        O  0.07116021  0.54931200  0.78441046    -0.78500
O726        O  0.99247163  0.60510383  0.76628017    -0.66100
Ni727      Ni  0.14763329  0.72341283  0.73864685     1.34900
C728        C  0.96938506  0.63853655  0.75967720     0.85000
O729        O  0.11900416  0.62982709  0.71128260    -0.79100
O730        O  0.14671861  0.69464963  0.70285389    -0.89300
C731        C  0.10002979  0.54268449  0.76462580     0.84600
O732        O  0.22227864  0.69985963  0.75125794    -0.67500
O733        O  0.01135564  0.63957220  0.81735814    -0.86800
C734        C  0.23667922  0.66334235  0.75208763     0.85400
C735        C  0.13500198  0.65771358  0.69529233     1.07000
H736        H  0.14116649  0.62911360  0.80052983     0.38800
O737        O  0.10387497  0.63105954  0.78827731    -1.09500
O738        O  0.99476425  0.67158259  0.76956522    -0.66100
Ni739      Ni  0.07883960  0.68581007  0.78450777     1.26300
O740        O  0.19961245  0.63482307  0.75595133    -0.66400
O741        O  0.07127495  0.69032167  0.82328195    -0.78600
C742        C  0.10479553  0.76040423  0.78705051     0.84800
O743        O  0.05902020  0.73948694  0.77934152    -0.65800
Ni744      Ni  0.04415103  0.59603447  0.80029726     1.27400
Ni745      Ni  0.11289947  0.62814080  0.74962464     1.26100
H746        H  0.05870825  0.68574269  0.73513811     0.39300
C747        C  0.87238886  0.52155287  0.91977616     0.30300
C748        C  0.96127865  0.56842951  0.90505133     0.30300
C749        C  0.85522591  0.55194308  0.89486780    -0.05900
C750        C  0.90701003  0.54768319  0.94384321    -0.06700
C751        C  0.92353413  0.49863909  0.90994077    -0.06600
C752        C  0.90116208  0.57569217  0.88845206    -0.05900
C753        C  0.95110892  0.57394494  0.93530742    -0.06700
C754        C  0.96948336  0.52308335  0.90400982    -0.06600
C755        C  0.88019182  0.60322828  0.86823875    -0.32000
N756        N  0.82174158  0.59611774  0.85991793     0.14500
C757        C  0.80615282  0.56439958  0.87601534    -0.32000
H758        H  0.76227409  0.55108499  0.87404782     0.16500
C759        C  0.99720309  0.57633876  0.95689396    -0.30900
N760        N  0.98845183  0.54982524  0.97713833     0.13300
C761        C  0.93350868  0.53301968  0.96984371    -0.30900
C762        C  0.01441931  0.49923295  0.89953916    -0.31200
N763        N  0.99605635  0.46028768  0.89891875     0.13800
H764        H  0.05640994  0.51056128  0.89534447     0.16400
C765        C  0.94032212  0.45971230  0.90551729    -0.31200
H766        H  0.91302639  0.43298030  0.90545167     0.16400
H767        H  0.91911221  0.50552596  0.97923014     0.16400
H768        H  0.90632092  0.62763209  0.86124604     0.16500
H769        H  0.04070574  0.58740105  0.95394981     0.16400
O770        O  0.54706458  0.31944574  0.83515685    -0.80600
O771        O  0.57964898  0.46825284  0.75646395    -0.65300
O772        O  0.59991629  0.36944355  0.79668372    -1.11900
C773        C  0.69550402  0.44323505  0.87180947     1.06300
O774        O  0.64163123  0.50997939  0.78286707    -0.78500
O775        O  0.71959005  0.44938037  0.79739144    -0.66100
Ni776      Ni  0.53464259  0.33191847  0.79429730     1.34900
C777        C  0.73717456  0.41452969  0.80498320     0.85000
O778        O  0.57252428  0.39242654  0.74193164    -0.79100
O779        O  0.51414218  0.34169540  0.75324786    -0.89300
C780        C  0.60453346  0.50240827  0.76115880     0.84600
O781        O  0.47650305  0.36874940  0.80034275    -0.67500
O782        O  0.71312826  0.46290273  0.85193172    -0.86800
C783        C  0.46330577  0.39910926  0.78491529     0.85400
C784        C  0.53145018  0.36656289  0.73517778     1.07000
H785        H  0.57540440  0.45359717  0.81912297     0.38800
O786        O  0.60966805  0.44272460  0.81297072    -1.09500
O787        O  0.70994434  0.39162473  0.82124313    -0.66100
Ni788      Ni  0.62847430  0.39271553  0.83190481     1.26300
O789        O  0.50346005  0.42127443  0.77628436    -0.66400
O790        O  0.65517368  0.41654918  0.86756956    -0.78600
C791        C  0.59123713  0.32260588  0.85504013     0.84800
O792        O  0.63794107  0.34187891  0.85066443    -0.65800
Ni793      Ni  0.67326313  0.48225112  0.81666002     1.27400
Ni794      Ni  0.58891877  0.41865419  0.77665776     1.26100
H795        H  0.63144751  0.35581140  0.79001996     0.39300
O796        O  0.13874248  0.49274147  0.73950995    -0.80600
O797        O  0.12103098  0.31273295  0.71563605    -0.65300
O798        O  0.07736149  0.42051565  0.72104456    -1.11900
C799        C  0.06379606  0.37625810  0.81267631     1.06300
O800        O  0.03348708  0.29410159  0.72495517    -0.78500
O801        O  0.96558519  0.34597236  0.75326484    -0.66100
Ni802      Ni  0.12263844  0.46229316  0.70570928     1.34900
C803        C  0.95370498  0.38191980  0.75824017     0.85000
O804        O  0.11003383  0.37083591  0.67903500    -0.79100
O805        O  0.10910957  0.43652060  0.67014379    -0.89300
C806        C  0.07618363  0.28967664  0.71070015     0.84600
O807        O  0.20058322  0.44169257  0.71543453    -0.67500
O808        O  0.04582438  0.34249391  0.80093942    -0.86800
C809        C  0.21894994  0.40976574  0.72799538     0.85400
C810        C  0.10822535  0.40029608  0.66232945     1.07000
H811        H  0.13009751  0.35562141  0.76608502     0.38800
O812        O  0.09254441  0.36159559  0.75502853    -1.09500
O813        O  0.99247551  0.41061090  0.75861211    -0.66100
Ni814      Ni  0.07853551  0.41599604  0.76065131     1.26300
O815        O  0.18483124  0.37929245  0.73001860    -0.66400
O816        O  0.08214616  0.40675040  0.79965070    -0.78600
C817        C  0.10345406  0.50045065  0.75627441     0.84800
O818        O  0.07034060  0.47303663  0.76511238    -0.65800
Ni819      Ni  0.03987123  0.31989454  0.76298233     1.27400
Ni820      Ni  0.10188867  0.36684827  0.71744088     1.26100
H821        H  0.03692817  0.42225146  0.71199946     0.39300
C822        C  0.23524830  0.44815278  0.59226487     0.30300
C823        C  0.32324345  0.50081372  0.58286339     0.30300
C824        C  0.29719766  0.43606642  0.60580452    -0.05900
C825        C  0.24328691  0.45382079  0.56167515    -0.06700
C826        C  0.23248871  0.49099185  0.60400528    -0.06600
C827        C  0.34257892  0.46273497  0.60125945    -0.05900
C828        C  0.28416416  0.48388863  0.55630905    -0.06700
C829        C  0.27663484  0.51775787  0.59906762    -0.06600
C830        C  0.39032875  0.45240810  0.62129970    -0.32000
N831        N  0.37702994  0.41901730  0.63628014     0.14500
C832        C  0.31903982  0.41028778  0.62734459    -0.32000
H833        H  0.29251070  0.38899956  0.63694039     0.16500
C834        C  0.25442959  0.50403300  0.53295110    -0.30900
N835        N  0.20300576  0.48390503  0.52287811     0.13300
C836        C  0.19928925  0.45162524  0.53941803    -0.30900
C837        C  0.26596554  0.55353106  0.61136220    -0.31200
N838        N  0.21642168  0.54978219  0.62352263     0.13800
H839        H  0.29259509  0.58046902  0.61157818     0.16400
C840        C  0.19828679  0.51058393  0.62048488    -0.31200
H841        H  0.16386838  0.49617024  0.63001635     0.16400
H842        H  0.16032862  0.43255413  0.53874164     0.16400
H843        H  0.43034438  0.47035179  0.62613746     0.16500
H844        H  0.26492308  0.53439179  0.52684462     0.16400
O845        O  0.54770053  0.52896136  0.72058994    -0.80600
O846        O  0.54061621  0.69943047  0.65558172    -0.65300
O847        O  0.57510121  0.59744378  0.69044915    -1.11900
C848        C  0.66604323  0.66768959  0.76842598     1.06300
O849        O  0.62962174  0.72559383  0.67077675    -0.78500
O850        O  0.70116877  0.67279239  0.69717593    -0.66100
Ni851      Ni  0.51040789  0.55903402  0.68888797     1.34900
C852        C  0.72132143  0.64312549  0.71141118     0.85000
O853        O  0.52264134  0.62438573  0.63769196    -0.79100
O854        O  0.46438433  0.58140614  0.65602079    -0.89300
C855        C  0.58536041  0.72085393  0.65118436     0.84600
O856        O  0.47281933  0.59209459  0.71212328    -0.67500
O857        O  0.68054528  0.69359447  0.75028659    -0.86800
C858        C  0.45292809  0.62670961  0.70546655     0.85400
C859        C  0.48215675  0.59756680  0.63489052     1.07000
H860        H  0.55569031  0.68233770  0.71709358     0.38800
O861        O  0.58604395  0.66997628  0.70868655    -1.09500
O862        O  0.68703068  0.61908887  0.72281885    -0.66100
Ni863      Ni  0.60225674  0.61946225  0.72680290     1.26300
O864        O  0.47458719  0.64896814  0.68693887    -0.66400
O865        O  0.62333753  0.64301401  0.76234054    -0.78600
C866        C  0.58880091  0.53525819  0.74095918     0.84800
O867        O  0.61600245  0.56878119  0.74502493    -0.65800
Ni868      Ni  0.65004093  0.70837895  0.71041143     1.27400
Ni869      Ni  0.55331620  0.64807628  0.67327308     1.26100
H870        H  0.60720930  0.58657071  0.68246748     0.39300
O871        O  0.53834173  0.24993104  0.98173900    -0.80600
O872        O  0.55917339  0.06768590  0.50756050    -0.65300
O873        O  0.58909892  0.18087676  0.00837286    -1.11900
C874        C  0.62561514  0.16308731  0.91591955     1.06300
O875        O  0.63381415  0.05522390  0.98040760    -0.78500
O876        O  0.69747664  0.11455013  0.96283148    -0.66100
Ni877      Ni  0.53450414  0.21709477  0.01704735     1.34900
C878        C  0.71675899  0.13987858  0.98178368     0.85000
O879        O  0.56579805  0.12547385  0.54633585    -0.79100
O880        O  0.52370210  0.18529970  0.55138351    -0.89300
C881        C  0.59557922  0.04452103  0.49915797     0.84600
O882        O  0.46409009  0.18955077  0.99985265    -0.67500
O883        O  0.60705547  0.12715314  0.91762783    -0.86800
C884        C  0.45065481  0.15352501  0.00567034     0.85400
C885        C  0.54165458  0.15027804  0.56067254     1.07000
H886        H  0.53639232  0.12978448  0.95978505     0.38800
O887        O  0.57651640  0.12961983  0.96943055    -1.09500
O888        O  0.68521876  0.16807182  0.98801983    -0.66100
Ni889      Ni  0.60658407  0.18366308  0.97201888     1.26300
O890        O  0.48846693  0.12600132  0.00591793    -0.66400
O891        O  0.62768504  0.18759997  0.93563399    -0.78600
C892        C  0.58362680  0.25782468  0.96924062     0.84800
O893        O  0.62937652  0.23792036  0.97626823    -0.65800
Ni894      Ni  0.61900831  0.09327790  0.95025839     1.27400
Ni895      Ni  0.57505211  0.12552483  0.00877746     1.26100
H896        H  0.62460112  0.18654394  0.02145276     0.39300
C897        C  0.84085018  0.04903246  0.83283091     0.30300
C898        C  0.76682693  0.10408841  0.84775930     0.30300
C899        C  0.87045078  0.08988903  0.84362049    -0.05900
C900        C  0.78877467  0.06056668  0.80949275    -0.06700
C901        C  0.80773649  0.03610796  0.85728724    -0.06600
C902        C  0.83185125  0.11857958  0.84912907    -0.05900
C903        C  0.75018103  0.08902645  0.81762178    -0.06700
C904        C  0.76956618  0.06417498  0.86465310    -0.06600
C905        C  0.86416958  0.14772050  0.86568648    -0.32000
N906        N  0.92019753  0.13615717  0.87411089     0.14500
C907        C  0.92322693  0.10004288  0.86137561    -0.32000
H908        H  0.95881051  0.07974944  0.86686590     0.16500
C909        C  0.69460876  0.07908322  0.80357309    -0.30900
N910        N  0.69728788  0.04865302  0.78599543     0.13300
C911        C  0.75352576  0.03596855  0.79006138    -0.30900
C912        C  0.72760944  0.04318496  0.87759230    -0.31200
N913        N  0.74070988  0.00376496  0.87972763     0.13800
H914        H  0.68855263  0.05566431  0.88359597     0.16400
C915        C  0.78842731  0.99928587  0.86681084    -0.31200
H916        H  0.80518322  0.97042294  0.86323948     0.16400
H917        H  0.76677646  0.00859522  0.78149035     0.16400
H918        H  0.84486248  0.17289808  0.87392610     0.16500
H919        H  0.65337564  0.08871487  0.80881336     0.16400
O920        O  0.12752261  0.82206738  0.91823476    -0.80600
O921        O  0.11711061  0.97407459  0.49280704    -0.65300
O922        O  0.08315498  0.87220308  0.95622735    -1.11900
C923        C  0.98592172  0.94833385  0.87983166     1.06300
O924        O  0.04189195  0.00552192  0.97273414    -0.78500
O925        O  0.96173693  0.95050869  0.95278983    -0.66100
Ni926      Ni  0.14069633  0.83180327  0.95898690     1.34900
C927        C  0.94662336  0.91373070  0.95077304     0.85000
O928        O  0.11538929  0.90042545  0.51151747    -0.79100
O929        O  0.15230800  0.84093719  0.50344916    -0.89300
C930        C  0.07935287  0.00038934  0.49377902     0.84600
O931        O  0.20654948  0.86469571  0.95349197    -0.67500
O932        O  0.97904630  0.97241641  0.89894696    -0.86800
C933        C  0.22386218  0.89763933  0.96489547     0.85400
C934        C  0.14488068  0.87005993  0.51978744     1.07000
H935        H  0.10704945  0.95569345  0.92958680     0.38800
O936        O  0.07427220  0.94468013  0.93788669    -1.09500
O937        O  0.97140570  0.88981454  0.93542212    -0.66100
Ni938      Ni  0.04899768  0.89392297  0.92069590     1.26300
O939        O  0.18748203  0.92375025  0.97034682    -0.66400
O940        O  0.01501506  0.91660349  0.88475756    -0.78600
C941        C  0.08335638  0.82503092  0.89852278     0.84800
O942        O  0.03695080  0.84237110  0.90321215    -0.65800
Ni943      Ni  0.01470975  0.98460582  0.93634378     1.27400
Ni944      Ni  0.09875654  0.92368968  0.47569144     1.26100
H945        H  0.04520877  0.86293934  0.46582300     0.39300
O946        O  0.57484105  0.99778778  0.53168347    -0.80600
O947        O  0.55179280  0.81010571  0.53298971    -0.65300
O948        O  0.60708439  0.91785561  0.53904529    -1.11900
C949        C  0.62406451  0.89290872  0.94319316     1.06300
O950        O  0.63727017  0.79419225  0.52307926    -0.78500
O951        O  0.70799841  0.84875341  0.49682297    -0.66100
Ni952      Ni  0.55719767  0.95448172  0.55440634     1.34900
C953        C  0.72561286  0.88508587  0.49604809     0.85000
O954        O  0.56977759  0.85805298  0.57602365    -0.79100
O955        O  0.53176368  0.91711763  0.58028367    -0.89300
C956        C  0.59570346  0.78843486  0.53813979     0.84600
O957        O  0.48952302  0.94299595  0.52686193    -0.67500
O958        O  0.63497063  0.85616552  0.95130711    -0.86800
C959        C  0.46746821  0.90899991  0.51894275     0.85400
C960        C  0.54100991  0.88145856  0.58845117     1.07000
H961        H  0.54700094  0.86391502  0.48827216     0.38800
O962        O  0.58544532  0.86667282  0.49958268    -1.09500
O963        O  0.69248969  0.91402599  0.50033324    -0.66100
Ni964      Ni  0.60716869  0.92093801  0.49902890     1.26300
O965        O  0.49446140  0.87661995  0.52609602    -0.66400
O966        O  0.60492879  0.91889415  0.95828688    -0.78600
C967        C  0.60753848  0.00384747  0.01017326     0.84800
O968        O  0.62804652  0.97630573  0.99668510    -0.65800
Ni969      Ni  0.63028719  0.82642117  0.48668133     1.27400
Ni970      Ni  0.57711737  0.86346504  0.53727994     1.26100
H971        H  0.64678795  0.91926653  0.54919367     0.39300
C972        C  0.40975054  0.93792822  0.65953105     0.30300
C973        C  0.34102134  0.99571058  0.67610572     0.30300
C974        C  0.34394345  0.92587675  0.65845335    -0.05900
C975        C  0.42750906  0.95085234  0.68998391    -0.06700
C976        C  0.41017014  0.97887584  0.64383683    -0.06600
C977        C  0.30803721  0.95677779  0.66365806    -0.05900
C978        C  0.39140248  0.98027968  0.69910098    -0.06700
C979        C  0.37500270  0.00801702  0.65214784    -0.06600
C980        C  0.25777701  0.95144993  0.64318185    -0.32000
N981        N  0.25876656  0.91573543  0.63008616     0.14500
C982        C  0.30990366  0.89904056  0.64077716    -0.32000
H983        H  0.32547524  0.87248916  0.63207387     0.16500
C984        C  0.42858921  0.00171386  0.71959640    -0.30900
N985        N  0.48342382  0.98682726  0.72306503     0.13300
C986        C  0.48365281  0.95761423  0.70433102    -0.30900
C987        C  0.39453946  0.04408825  0.64225123    -0.31200
N988        N  0.44162438  0.03883411  0.62901483     0.13800
H989        H  0.37747129  0.07270489  0.64553576     0.16400
C990        C  0.45163259  0.99877519  0.63013218    -0.31200
H991        H  0.48724472  0.98440542  0.62255374     0.16400
H992        H  0.52388803  0.94712613  0.69848036     0.16400
H993        H  0.22691976  0.97443917  0.63580068     0.16500
H994        H  0.41813129  0.02839076  0.72963816     0.16400
O995        O  0.13559086  0.02762992  0.53392501    -0.80600
O996        O  0.13874332  0.18997908  0.60094043    -0.65300
O997        O  0.09984750  0.08636642  0.56937783    -1.11900
C998        C  0.04805423  0.17097141  0.98280328     1.06300
O999        O  0.04880261  0.20969713  0.58418255    -0.78500
O1000       O  0.97131357  0.17352770  0.54160929    -0.66100
Ni1001     Ni  0.15610499  0.04478038  0.57197350     1.34900
C1002       C  0.95366158  0.13733342  0.53800600     0.85000
O1003       O  0.15773919  0.11645469  0.62169914    -0.79100
O1004       O  0.18262802  0.05516812  0.61066312    -0.89300
C1005       C  0.09241969  0.20822423  0.60445042     0.84600
O1006       O  0.21737258  0.07702418  0.55975810    -0.67500
O1007       O  0.04337915  0.20074528  0.99903721    -0.86800
C1008       C  0.23242627  0.11392810  0.56072348     0.85400
C1009       C  0.18032295  0.08265885  0.62824674     1.07000
H1010       H  0.12902276  0.16595506  0.53941832     0.38800
O1011       O  0.09503272  0.15691172  0.54873391    -1.09500
O1012       O  0.98919184  0.10835997  0.53923825    -0.66100
Ni1013     Ni  0.08420713  0.11300628  0.02784051     1.26300
O1014       O  0.20416176  0.13969144  0.57264586    -0.66400
O1015       O  0.06487855  0.13686161  0.99211889    -0.78600
C1016       C  0.09812547  0.03149766  0.01309385     0.84800
O1017       O  0.06849508  0.06296648  0.00997164    -0.65800
Ni1018     Ni  0.04527432  0.20117441  0.54336676     1.27400
Ni1019     Ni  0.12576391  0.13750161  0.58524781     1.26100
H1020       H  0.06694804  0.07655695  0.57806772     0.39300
C1021       C  0.26583434  0.09134575  0.66530338    -0.12000
C1022       C  0.20984836  0.07396443  0.65691233     0.05000
C1023       C  0.19495579  0.03829439  0.67051256    -0.07300
C1024       C  0.23998911  0.01550191  0.68539419    -0.08000
C1025       C  0.29940791  0.02730979  0.68536628    -0.02600
C1026       C  0.30962360  0.06911384  0.68174799     0.04200
N1027       N  0.36070238  0.08971817  0.69640213     0.66700
H1028       H  0.27672791  0.12082507  0.65761627     0.15600
H1029       H  0.22888361  0.98558348  0.69224449     0.15400
N1030       N  0.13579428  0.02244057  0.66630786     0.74500
O1031       O  0.36815521  0.08895036  0.72284829    -0.39000
O1032       O  0.38462272  0.11829483  0.68443009    -0.38900
O1033       O  0.12025502  0.99636688  0.64778432    -0.39600
O1034       O  0.10354567  0.02805385  0.68472529    -0.39700
C1035       C  0.42053342  0.89976666  0.61697526    -0.12000
C1036       C  0.44283475  0.90692449  0.64529578     0.05000
C1037       C  0.49441611  0.88639475  0.65692702    -0.07300
C1038       C  0.52989058  0.87109387  0.63832464    -0.08000
C1039       C  0.50672717  0.86694968  0.60981897    -0.02600
C1040       C  0.44654668  0.87279319  0.60164518     0.04200
N1041       N  0.41581367  0.85779758  0.57551233     0.66700
H1042       H  0.38158888  0.91438932  0.60687599     0.15600
H1043       H  0.57454164  0.86228310  0.64589679     0.15400
N1044       N  0.50671189  0.87589086  0.68603845     0.74500
O1045       O  0.43466028  0.82742684  0.56489648    -0.39000
O1046       O  0.36444516  0.86913198  0.56627154    -0.38900
O1047       O  0.46783807  0.85653294  0.69698883    -0.39600
O1048       O  0.55932633  0.87636214  0.69842870    -0.39700
C1049       C  0.86654758  0.86329740  0.96301308    -0.12000
C1050       C  0.89647454  0.90074877  0.96693383     0.05000
C1051       C  0.84004572  0.93868900  0.45804433    -0.07300
C1052       C  0.79254128  0.93092143  0.47280128    -0.08000
C1053       C  0.78434606  0.89401865  0.48609415    -0.02600
C1054       C  0.81458207  0.85431634  0.97489631     0.04200
N1055       N  0.78675727  0.81564048  0.97007290     0.66700
H1056       H  0.88226059  0.84130077  0.94990508     0.15600
H1057       H  0.76009917  0.95379930  0.47266842     0.15400
N1058       N  0.84209280  0.97637583  0.44395436     0.74500
O1059       O  0.74896571  0.80948634  0.94854640    -0.39000
O1060       O  0.79876479  0.78781937  0.98782218    -0.38900
O1061       O  0.81080267  0.98068102  0.42038211    -0.39600
O1062       O  0.86057333  0.00705691  0.45783705    -0.39700
C1063       C  0.37319422  0.87118060  0.50482062    -0.12000
C1064       C  0.40648773  0.90638567  0.50232430     0.05000
C1065       C  0.38220558  0.94246170  0.98429094    -0.07300
C1066       C  0.32064395  0.93893497  0.97384793    -0.08000
C1067       C  0.28909688  0.90231229  0.97505812    -0.02600
C1068       C  0.31342351  0.86797595  0.49394887     0.04200
N1069       N  0.28244468  0.83173483  0.49969166     0.66700
H1070       H  0.39322663  0.84566559  0.51605086     0.15600
H1071       H  0.29787533  0.96414082  0.96336248     0.15400
N1072       N  0.41516873  0.97725530  0.97651449     0.74500
O1073       O  0.28202149  0.80257230  0.48336626    -0.39000
O1074       O  0.27217516  0.82508463  0.52431532    -0.38900
O1075       O  0.46813561  0.97413970  0.97296455    -0.39600
O1076       O  0.38829494  0.00797845  0.96669890    -0.39700
C1077       C  0.21599589  0.90997859  0.55190173    -0.12000
C1078       C  0.17927174  0.87526293  0.54846555     0.05000
C1079       C  0.16812872  0.85423653  0.57277702    -0.07300
C1080       C  0.19339678  0.86840638  0.59962332    -0.08000
C1081       C  0.22750121  0.90438358  0.60280024    -0.02600
C1082       C  0.23907801  0.92490645  0.57841093     0.04200
N1083       N  0.27364961  0.96138399  0.58010836     0.66700
H1084       H  0.22448677  0.92707993  0.53358089     0.15600
H1085       H  0.18582954  0.85155008  0.61814937     0.15400
N1086       N  0.13015622  0.81943525  0.57074436     0.74500
O1087       O  0.32385807  0.96187455  0.57256518    -0.39000
O1088       O  0.24822848  0.99404828  0.58138023    -0.38900
O1089       O  0.15246378  0.78530828  0.57329337    -0.39600
O1090       O  0.07671203  0.82284142  0.57330364    -0.39700
C1091       C  0.56521206  0.98125641  0.76198741    -0.12000
C1092       C  0.53626956  0.00333864  0.73932884     0.05000
C1093       C  0.56262339  0.03934142  0.73125217    -0.07300
C1094       C  0.61662051  0.05322764  0.74630835    -0.08000
C1095       C  0.64583227  0.03110369  0.76904629    -0.02600
C1096       C  0.61934361  0.99493677  0.77696339     0.04200
N1097       N  0.64520001  0.97289879  0.80104231     0.66700
H1098       H  0.54531089  0.95332852  0.76812688     0.15600
H1099       H  0.63612084  0.08134593  0.74026395     0.15400
N1100       N  0.53587602  0.06111299  0.70717525     0.74500
O1101       O  0.62686361  0.97778583  0.82403467    -0.39000
O1102       O  0.67367389  0.94211219  0.79777861    -0.38900
O1103       O  0.50831173  0.09237239  0.71023023    -0.39600
O1104       O  0.53170566  0.04578630  0.68322675    -0.39700
C1105       C  0.86553612  0.97710237  0.82400517    -0.12000
C1106       C  0.88311867  0.01764218  0.82466701     0.05000
C1107       C  0.94434672  0.02555962  0.82660478    -0.07300
C1108       C  0.98279395  0.99821826  0.84182844    -0.08000
C1109       C  0.96065707  0.96139381  0.85103159    -0.02600
C1110       C  0.90356378  0.94876472  0.83819273     0.04200
N1111       N  0.88187013  0.90858330  0.84052631     0.66700
H1112       H  0.81969551  0.96848382  0.81751030     0.15600
H1113       H  0.02853718  0.00697835  0.84859229     0.15400
N1114       N  0.96687212  0.06053244  0.81354437     0.74500
O1115       O  0.87428550  0.89435882  0.86406334    -0.39000
O1116       O  0.86044169  0.88994297  0.81855514    -0.38900
O1117       O  0.01992992  0.07220674  0.82027734    -0.39600
O1118       O  0.93605045  0.07656133  0.79261025    -0.39700
C1119       C  0.64632366  0.97217002  0.88966206    -0.12000
C1120       C  0.70798381  0.97137561  0.89154702     0.05000
C1121       C  0.73712007  0.93820578  0.90536828    -0.07300
C1122       C  0.70501195  0.90728898  0.91679899    -0.08000
C1123       C  0.64480520  0.91032545  0.91773151    -0.02600
C1124       C  0.61481846  0.94234644  0.90270902     0.03200
N1125       N  0.55288146  0.94643503  0.90214678     0.66700
H1126       H  0.62259942  0.99677814  0.87887210     0.15600
H1127       H  0.72918955  0.88414313  0.92909975     0.15400
N1128       N  0.79993678  0.93801186  0.91160138     0.74500
O1129       O  0.53484438  0.97285468  0.91689970    -0.39000
O1130       O  0.51730902  0.93041320  0.88261997    -0.38900
O1131       O  0.82782721  0.96745065  0.92395801    -0.39600
O1132       O  0.82610027  0.90580541  0.90982154    -0.39700
C1133       C  0.98292357  0.19668778  0.93930479    -0.12000
C1134       C  0.02899528  0.17255612  0.95148830     0.05000
C1135       C  0.04750557  0.14266722  0.93444620    -0.07300
C1136       C  0.01292438  0.13211769  0.90877327    -0.08000
C1137       C  0.96192281  0.15294293  0.89777343    -0.02600
C1138       C  0.95176909  0.18867969  0.91216228     0.04200
N1139       N  0.91473737  0.21915546  0.89883522     0.66700
H1140       H  0.97020864  0.22147929  0.95103343     0.15600
H1141       H  0.02664830  0.10718684  0.89765217     0.15400
N1142       N  0.10075482  0.12176501  0.94351790     0.74500
O1143       O  0.87212622  0.23052102  0.91008426    -0.39000
O1144       O  0.93379989  0.24149535  0.88070537    -0.38900
O1145       O  0.09972591  0.08403029  0.94520395    -0.39600
O1146       O  0.14853491  0.14115076  0.95101453    -0.39700
C1147       C  0.34037900  0.16903223  0.51734468    -0.12000
C1148       C  0.39235908  0.14472958  0.01631360     0.05000
C1149       C  0.37951803  0.10749060  0.02901234    -0.07300
C1150       C  0.33006109  0.10271392  0.04277363    -0.08000
C1151       C  0.28527041  0.12541082  0.54657503    -0.02600
C1152       C  0.29196685  0.16213378  0.53219402     0.04200
N1153       N  0.24928900  0.19237549  0.53177780     0.66700
H1154       H  0.34525569  0.19807568  0.50755267     0.15600
H1155       H  0.32210832  0.07373974  0.05216114     0.15400
N1156       N  0.41503601  0.07332861  0.02799353     0.74500
O1157       O  0.25035940  0.21486885  0.55261739    -0.39000
O1158       O  0.21013559  0.19645979  0.51059026    -0.38900
O1159       O  0.46269521  0.07085753  0.04474212    -0.39600
O1160       O  0.39069156  0.04156120  0.01746569    -0.39700
C1161       C  0.81918890  0.11511643  0.98385021    -0.12000
C1162       C  0.77875632  0.13625799  0.99664681     0.05000
C1163       C  0.79423711  0.16512551  0.51977611    -0.07300
C1164       C  0.85108262  0.16112574  0.53494616    -0.08000
C1165       C  0.88853080  0.13088277  0.52909813    -0.02600
C1166       C  0.87884170  0.11320674  0.99577804     0.04200
N1167       N  0.91938199  0.09898537  0.97875981     0.66700
H1168       H  0.80538171  0.10207919  0.96337154     0.15600
H1169       H  0.86792546  0.18425467  0.54982340     0.15400
N1170       N  0.76333884  0.20043363  0.52390854     0.74500
O1171       O  0.94233566  0.06543824  0.98406894    -0.39000
O1172       O  0.92214545  0.11558898  0.95533434    -0.38900
O1173       O  0.74385101  0.20493250  0.54667058    -0.39600
O1174       O  0.76760894  0.23032884  0.50795745    -0.39700
C1175       C  0.63926418  0.16571504  0.86587729    -0.12000
C1176       C  0.66124387  0.17266462  0.89418305     0.05000
C1177       C  0.72169896  0.16906350  0.90340662    -0.07300
C1178       C  0.75116178  0.14299366  0.88900690    -0.08000
C1179       C  0.73057499  0.13413837  0.86075624    -0.02600
C1180       C  0.67721422  0.15170380  0.84811433     0.04200
N1181       N  0.66510245  0.16085869  0.81875639     0.66700
H1182       H  0.59391447  0.17225878  0.85772850     0.15600
H1183       H  0.79152469  0.13051926  0.89974351     0.15400
N1184       N  0.75136791  0.18798669  0.92850810     0.74500
O1185       O  0.61284995  0.15803738  0.80599348    -0.39000
O1186       O  0.70270321  0.18147895  0.80778423    -0.38900
O1187       O  0.80225382  0.17747296  0.93927827    -0.39600
O1188       O  0.73340983  0.22086339  0.93586841    -0.39700
C1189       C  0.55984486  0.09969658  0.59873226    -0.12000
C1190       C  0.52816423  0.13325098  0.58775323     0.05000
C1191       C  0.47331509  0.13922238  0.59614777    -0.07300
C1192       C  0.44579727  0.10790606  0.60948377    -0.08000
C1193       C  0.47409164  0.07140371  0.61712757    -0.02600
C1194       C  0.53390985  0.06897526  0.61323012     0.04200
N1195       N  0.56927983  0.03564023  0.62289133     0.66700
H1196       H  0.60357839  0.09534762  0.59368472     0.15600
H1197       H  0.40123443  0.11230909  0.61308882     0.15400
N1198       N  0.44496833  0.17669947  0.59116088     0.74500
O1199       O  0.57646070  0.00914522  0.60547736    -0.39000
O1200       O  0.60789888  0.04002119  0.64434238    -0.38900
O1201       O  0.39197289  0.17756276  0.57955092    -0.39600
O1202       O  0.46819995  0.20729803  0.60391679    -0.39700
C1203       C  0.64430997  0.74674188  0.61326548    -0.12000
C1204       C  0.58898701  0.73762728  0.62186643     0.05000
C1205       C  0.53876251  0.74066109  0.60104950    -0.07300
C1206       C  0.54388955  0.75317730  0.57354639    -0.08000
C1207       C  0.59838839  0.76393226  0.56506765    -0.02600
C1208       C  0.64940288  0.75939518  0.58535164     0.04200
N1209       N  0.70667070  0.76724379  0.57815530     0.66700
H1210       H  0.68426320  0.74345315  0.62819808     0.15600
H1211       H  0.50361569  0.75593514  0.55871101     0.15400
N1212       N  0.48138858  0.73059022  0.60710809     0.74500
O1213       O  0.73254252  0.80052741  0.58427913    -0.39000
O1214       O  0.73618607  0.73828640  0.57212915    -0.38900
O1215       O  0.44864912  0.75806244  0.61258773    -0.39600
O1216       O  0.45849084  0.69722631  0.59905609    -0.39700
C1217       C  0.36171146  0.57147469  0.57617112    -0.12000
C1218       C  0.37284187  0.53047647  0.57693040     0.05000
C1219       C  0.43260309  0.52011827  0.58255756    -0.07300
C1220       C  0.47278074  0.54618925  0.59884555    -0.08000
C1221       C  0.45415106  0.58308964  0.60724481    -0.02600
C1222       C  0.39951247  0.59742254  0.59377005     0.04200
N1223       N  0.37772759  0.63526460  0.60050854     0.66700
H1224       H  0.31809493  0.58126517  0.56749913     0.15600
H1225       H  0.51658335  0.53623874  0.60706557     0.15400
N1226       N  0.45195320  0.48348967  0.57230689     0.74500
O1227       O  0.34699464  0.65539767  0.58160819    -0.39000
O1228       O  0.38126704  0.64578043  0.62573529    -0.38900
O1229       O  0.43005805  0.47166293  0.54810512    -0.39600
O1230       O  0.49674968  0.46651445  0.58516621    -0.39700
C1231       C  0.03221365  0.23965729  0.63838724    -0.12000
C1232       C  0.08692021  0.22570301  0.63299334     0.05000
C1233       C  0.13474407  0.22809584  0.65548469    -0.07300
C1234       C  0.12825498  0.24634685  0.68098668    -0.08000
C1235       C  0.07452934  0.26194639  0.68592842    -0.02600
C1236       C  0.02553874  0.25705345  0.66438604     0.04200
N1237       N  0.96898190  0.27067638  0.66802363     0.66700
H1238       H  0.99400375  0.23739676  0.62218311     0.15600
H1239       H  0.16681998  0.24954256  0.69694710     0.15400
N1240       N  0.19139249  0.21364808  0.65270328     0.74500
O1241       O  0.95219767  0.30405245  0.65769650    -0.39000
O1242       O  0.93135006  0.24577023  0.67508929    -0.38900
O1243       O  0.23062917  0.23786524  0.64634844    -0.39600
O1244       O  0.20654390  0.18037863  0.66373455    -0.39700
C1245       C  0.08956144  0.42331260  0.61370629    -0.12000
C1246       C  0.11072531  0.39321871  0.63271800     0.05000
C1247       C  0.15397612  0.36821598  0.62533183    -0.07300
C1248       C  0.18941736  0.38263284  0.60624168    -0.08000
C1249       C  0.18168955  0.42148027  0.59566774    -0.02600
C1250       C  0.12436344  0.43707947  0.59415924     0.04200
N1251       N  0.10128845  0.46636484  0.57369181     0.66700
H1252       H  0.05107146  0.43975355  0.61660159     0.15600
H1253       H  0.22614224  0.36538956  0.60210831     0.15400
N1254       N  0.16465304  0.32969843  0.63774685     0.74500
O1255       O  0.06826763  0.45415369  0.55194117    -0.39000
O1256       O  0.09635653  0.50194408  0.58102441    -0.38900
O1257       O  0.15663080  0.29980380  0.62185756    -0.39600
O1258       O  0.19793074  0.32670273  0.66100459    -0.39700
C1259       C  0.53346582  0.27346796  0.91997785    -0.12000
C1260       C  0.58035065  0.28117889  0.94186800     0.05000
C1261       C  0.63000086  0.30314860  0.93484031    -0.07300
C1262       C  0.63264499  0.31543332  0.90683519    -0.08000
C1263       C  0.58662741  0.30672117  0.88459071    -0.02600
C1264       C  0.53597581  0.28582334  0.89187290     0.04200
N1265       N  0.48700805  0.27552713  0.87096278     0.66700
H1266       H  0.49558362  0.25572295  0.92437704     0.15600
H1267       H  0.67134622  0.33232329  0.90258748     0.15400
N1268       N  0.67795259  0.31423247  0.95615246     0.74500
O1269       O  0.48369834  0.24112443  0.86032140    -0.39000
O1270       O  0.44146155  0.29621924  0.86846494    -0.38900
O1271       O  0.72627628  0.29683670  0.95765673    -0.39600
O1272       O  0.67653824  0.34692731  0.96871732    -0.39700
C1273       C  0.79430362  0.37076009  0.77639659    -0.12000
C1274       C  0.79333801  0.40276312  0.79491545     0.05000
C1275       C  0.84422625  0.42826266  0.79987570    -0.07300
C1276       C  0.89313778  0.42238491  0.78611842    -0.08000
C1277       C  0.89496370  0.39031254  0.76766042    -0.02600
C1278       C  0.84436756  0.36399986  0.76320821     0.04200
N1279       N  0.84236112  0.33047743  0.74507699     0.66700
H1280       H  0.75554179  0.35127129  0.77166008     0.15600
H1281       H  0.93156351  0.44207766  0.79130019     0.15400
N1282       N  0.84851182  0.45903614  0.82039089     0.74500
O1283       O  0.85233011  0.29612140  0.75562805    -0.39000
O1284       O  0.81663235  0.33353516  0.72010403    -0.38900
O1285       O  0.86592679  0.45031596  0.84578358    -0.39600
O1286       O  0.84784460  0.49529243  0.81269298    -0.39700
C1287       C  0.38503672  0.43301959  0.75096888    -0.12000
C1288       C  0.39933990  0.40548537  0.77325313     0.05000
C1289       C  0.35311514  0.37979380  0.78019901    -0.07300
C1290       C  0.29596235  0.38155396  0.76489083    -0.08000
C1291       C  0.28191813  0.40854433  0.74240986    -0.02600
C1292       C  0.32754666  0.43487264  0.73572035     0.04200
N1293       N  0.31735628  0.46254214  0.71272850     0.66700
H1294       H  0.41924162  0.45245962  0.74449177     0.15600
H1295       H  0.26199106  0.36150257  0.77095401     0.15400
N1296       N  0.36309308  0.35089337  0.80242283     0.74500
O1297       O  0.30624242  0.49830196  0.71739121    -0.39000
O1298       O  0.33409320  0.45429245  0.68984977    -0.38900
O1299       O  0.35058002  0.35926521  0.82617218    -0.39600
O1300       O  0.36929380  0.31475706  0.79655885    -0.39700
C1301       C  0.43872004  0.35627117  0.70097794    -0.12000
C1302       C  0.49721921  0.37074250  0.70621881     0.05000
C1303       C  0.51702173  0.39657339  0.68575619    -0.07300
C1304       C  0.47749910  0.41005881  0.66266562    -0.08000
C1305       C  0.41704051  0.39928787  0.65880493    -0.02600
C1306       C  0.39896316  0.36956695  0.67771163     0.04200
N1307       N  0.34088856  0.35220848  0.67442313     0.66700
H1308       H  0.42229717  0.33604069  0.71596136     0.15600
H1309       H  0.49504679  0.42998946  0.64795817     0.15400
N1310       N  0.57680390  0.41118948  0.68852369     0.74500
O1311       O  0.30474528  0.36484316  0.68918632    -0.39000
O1312       O  0.33167456  0.31812433  0.66342190    -0.38900
O1313       O  0.61241118  0.39367335  0.67572843    -0.39600
O1314       O  0.58922202  0.44643607  0.69698243    -0.39700
C1315       C  0.04599337  0.48927446  0.98635320    -0.12000
C1316       C  0.03871529  0.52971984  0.99194895     0.05000
C1317       C  0.07605659  0.55192402  0.50684213    -0.07300
C1318       C  0.13300021  0.53832446  0.51570876    -0.08000
C1319       C  0.14946236  0.50041861  0.50816257    -0.02600
C1320       C  0.10005399  0.47100598  0.99444597     0.04200
N1321       N  0.10319636  0.42907047  0.98935293     0.66700
H1322       H  0.01005161  0.47199195  0.97457004     0.15600
H1323       H  0.16403110  0.55709689  0.52932412     0.15400
N1324       N  0.06232795  0.59144636  0.51405963     0.74500
O1325       O  0.07479995  0.40443487  0.00265666    -0.39000
O1326       O  0.11914714  0.41794961  0.96692853    -0.38900
O1327       O  0.05086199  0.59776194  0.53832084    -0.39600
O1328       O  0.07552380  0.62073163  0.49916784    -0.39700
C1329       C  0.71641674  0.49173085  0.90955389    -0.12000
C1330       C  0.72471556  0.45312933  0.90012835     0.05000
C1331       C  0.77516892  0.43276241  0.91242438    -0.07300
C1332       C  0.82153771  0.45462791  0.92815741    -0.08000
C1333       C  0.82023027  0.49654240  0.92806812    -0.02600
C1334       C  0.76388142  0.51303079  0.92491177     0.04200
N1335       N  0.75520469  0.55121983  0.93632898     0.66700
H1336       H  0.67553876  0.50672749  0.90252944     0.15600
H1337       H  0.86069037  0.43958819  0.93756159     0.15400
N1338       N  0.78295161  0.39171189  0.90648165     0.74500
O1339       O  0.75562452  0.55359042  0.96242824    -0.39000
O1340       O  0.73243353  0.57885433  0.92055574    -0.38900
O1341       O  0.80886731  0.38314335  0.88622142    -0.39600
O1342       O  0.77824595  0.36562072  0.92524425    -0.39700
C1343       C  0.98928547  0.39507683  0.87429778    -0.12000
C1344       C  0.02381367  0.42828313  0.88593576     0.05000
C1345       C  0.08226292  0.43283866  0.87955244    -0.07300
C1346       C  0.09790685  0.41139791  0.85721632    -0.08000
C1347       C  0.05885030  0.38329767  0.84246857    -0.02600
C1348       C  0.00742910  0.37189780  0.85334218     0.04200
N1349       N  0.97098655  0.33896637  0.84175139     0.66700
H1350       H  0.94626010  0.38832422  0.87985022     0.15600
H1351       H  0.13968054  0.41838554  0.85017354     0.15400
N1352       N  0.12556696  0.45979337  0.89455038     0.74500
O1353       O  0.92329439  0.34511648  0.82570316    -0.39000
O1354       O  0.98898982  0.30374197  0.84567080    -0.38900
O1355       O  0.13000060  0.46285897  0.92081046    -0.39600
O1356       O  0.16112230  0.47959285  0.88174836    -0.39700
C1357       C  0.72251725  0.61992400  0.83941167    -0.12000
C1358       C  0.78342866  0.61903163  0.83863436     0.05000
C1359       C  0.80512374  0.64163078  0.81681188    -0.07300
C1360       C  0.76631711  0.66199071  0.79625938    -0.08000
C1361       C  0.70521727  0.65992788  0.79580791    -0.02600
C1362       C  0.68375964  0.63975876  0.81849018     0.04200
N1363       N  0.62231156  0.63858343  0.82048671     0.66700
H1364       H  0.70434551  0.60470255  0.85624288     0.15600
H1365       H  0.78401839  0.67629221  0.77892434     0.15400
N1366       N  0.86565782  0.64175723  0.81335375     0.74500
O1367       O  0.59255600  0.60648724  0.81505779    -0.39000
O1368       O  0.60216604  0.66535347  0.83419601    -0.38900
O1369       O  0.88661146  0.61071308  0.80468707    -0.39600
O1370       O  0.89475676  0.67451301  0.81396139    -0.39700
C1371       C  0.14571242  0.80313527  0.86206663    -0.12000
C1372       C  0.08936942  0.81061618  0.86918927     0.05000
C1373       C  0.04099424  0.80683696  0.84730547    -0.07300
C1374       C  0.04865503  0.79370562  0.82049727    -0.08000
C1375       C  0.10422946  0.78431620  0.81364398    -0.02600
C1376       C  0.15350722  0.79091321  0.83474670     0.04200
N1377       N  0.21180296  0.78575294  0.82890465     0.66700
H1378       H  0.18451839  0.80739802  0.87772493     0.15600
H1379       H  0.00965703  0.78997088  0.80485029     0.15400
N1380       N  0.98355623  0.81793912  0.85126663     0.74500
O1381       O  0.23969727  0.81539480  0.82030074    -0.39000
O1382       O  0.23946148  0.75509568  0.83811648    -0.38900
O1383       O  0.96413843  0.85028821  0.84039764    -0.39600
O1384       O  0.94783466  0.79179805  0.85846067    -0.39700
C1385       C  0.36547257  0.60732313  0.72904460    -0.12000
C1386       C  0.40048297  0.63836518  0.71916583     0.05000
C1387       C  0.38470357  0.67807208  0.72365738    -0.07300
C1388       C  0.33475862  0.68548305  0.73681077    -0.08000
C1389       C  0.29757908  0.65413462  0.74510915    -0.02600
C1390       C  0.31517169  0.61457932  0.74149095     0.04200
N1391       N  0.28138494  0.58086156  0.74934046     0.66700
H1392       H  0.37600950  0.57640254  0.72631080     0.15600
H1393       H  0.32328034  0.71632020  0.73906077     0.15400
N1394       N  0.41839065  0.71133264  0.71495007     0.74500
O1395       O  0.24070297  0.56594081  0.73158730    -0.39000
O1396       O  0.30055244  0.56096117  0.77109312    -0.38900
O1397       O  0.39971192  0.72976208  0.69246851    -0.39600
O1398       O  0.45887585  0.72728254  0.73230465    -0.39700
C1399       C  0.81399505  0.60418694  0.72471751    -0.12000
C1400       C  0.78708773  0.64088685  0.71833047     0.05000
C1401       C  0.82332310  0.67639484  0.72185056    -0.07300
C1402       C  0.88269352  0.67474833  0.73419793    -0.08000
C1403       C  0.90891884  0.63829065  0.74230928    -0.02600
C1404       C  0.87448412  0.60244059  0.73558957     0.04200
N1405       N  0.89967260  0.56383956  0.73969001     0.66700
H1406       H  0.78785839  0.57660982  0.72145764     0.15600
H1407       H  0.90794384  0.70257296  0.73815503     0.15400
N1408       N  0.79986293  0.71499992  0.71483130     0.74500
O1409       O  0.89158399  0.54309696  0.76090418    -0.39000
O1410       O  0.91641897  0.54698368  0.71919184    -0.38900
O1411       O  0.78762167  0.73694953  0.73404001    -0.39600
O1412       O  0.80461934  0.73041440  0.69121625    -0.39700
C1413       C  0.01337274  0.63509483  0.90172430    -0.12000
C1414       C  0.00830728  0.59436123  0.89425701     0.05000
C1415       C  0.03741149  0.58200602  0.87189224    -0.07300
C1416       C  0.07834632  0.60831826  0.86267744    -0.08000
C1417       C  0.06447550  0.64852198  0.86241793    -0.02600
C1418       C  0.03850345  0.66279395  0.88466161     0.04200
N1419       N  0.02953809  0.70442625  0.88752821     0.66700
H1420       H  0.99010232  0.64611045  0.91779945     0.15600
H1421       H  0.10135173  0.59811511  0.84620008     0.15400
N1422       N  0.01529472  0.54976173  0.85329513     0.74500
O1423       O  0.97878994  0.71770995  0.87977563    -0.39000
O1424       O  0.06601832  0.72447613  0.90451158    -0.38900
O1425       O  0.96112399  0.54698179  0.84350143    -0.39600
O1426       O  0.05077609  0.52916674  0.84239422    -0.39700
C1427       C  0.10856787  0.60957617  0.65751055    -0.12000
C1428       C  0.14349791  0.64292512  0.66742288     0.05000
C1429       C  0.19664567  0.64996426  0.65709252    -0.07300
C1430       C  0.21986970  0.61949662  0.64253627    -0.08000
C1431       C  0.18902876  0.58222033  0.63657512    -0.02600
C1432       C  0.13038922  0.57918778  0.64282781     0.04200
N1433       N  0.09191741  0.54530015  0.63588920     0.66700
H1434       H  0.06586489  0.60463775  0.66415412     0.15600
H1435       H  0.26279970  0.62532095  0.63668702     0.15400
N1436       N  0.22683309  0.68796047  0.66090982     0.74500
O1437       O  0.08741524  0.51945341  0.65485524    -0.39000
O1438       O  0.04868385  0.54933295  0.61657138    -0.38900
O1439       O  0.26700292  0.69351089  0.68149913    -0.39600
O1440       O  0.20812024  0.71737668  0.64576572    -0.39700
loop_ 
_geom_bond_atom_site_label_1 
_geom_bond_atom_site_label_2 
_geom_bond_distance 
_geom_bond_site_symmetry_2 
_ccdc_geom_bond_type 
O1           Ni7   2.040       .  S
O1           C22   1.297       .  A
O2          Ni25   1.941       .  S
O2           C11   1.285       .  A
O3           Ni7   1.896       .  S
O3          Ni25   1.890       .  S
O3          Ni19   1.853       .  S
O3           H26   0.966       .  S
C4           O21   1.244       .  A
C4           O13   1.259       .  A
C4          C697   1.454       .  S
O5          Ni24   1.916       .  S
O5           C11   1.270       .  A
O6          Ni24   1.895   1_655  S
O6            C8   1.269       .  A
Ni7          O10   1.994       .  S
Ni7          O12   1.919       .  S
C8           O18   1.297       .  A
C8          C683   1.509       .  S
O9          Ni25   1.880       .  S
O9           C15   1.282       .  A
O10          C15   1.302       .  A
C11          C97   1.481       .  S
O12          C14   1.272       .  A
O13         Ni24   1.914       .  S
C14          O20   1.287       .  A
C14         C669   1.534       .  S
C15         C708   1.490       .  S
H16          O17   0.966       .  S
O17         Ni25   1.913       .  S
O17         Ni19   1.934       .  S
O17         Ni24   1.927       .  S
O18         Ni19   2.013   1_655  S
Ni19         O23   1.873       .  S
Ni19         O21   1.908       .  S
O20         Ni25   1.978       .  S
C22          O23   1.256       .  A
C22         C655   1.528       .  S
C27          C29   1.578       .  S
C27          C31   1.560       .  S
C27          C30   1.559       .  S
C27         C613   1.540       .  S
C28          C32   1.513       .  S
C28          C34   1.542       .  S
C28          C33   1.528       .  S
C28         C694   1.510       .  S
C29          C37   1.400       .  A
C29          C32   1.370       .  A
C30          C41   1.403       .  A
C30          C33   1.414       .  A
C31          C45   1.399       .  A
C31          C34   1.384       .  A
C32          C35   1.380       .  A
C33          C39   1.366       .  A
C34          C42   1.372       .  A
C35          N36   1.361       .  A
C35          H48   1.075       .  S
N36          C37   1.378       .  A
N36         C638   1.478       .  S
C37          H38   1.076       .  S
C39          N40   1.339       .  A
C39          H49   1.084   1_655  S
N40          C41   1.364       .  A
N40         C596   1.440   1_655  S
C41          H47   1.083       .  S
C42          N43   1.355       .  A
C42          H44   1.072   1_655  S
N43          C45   1.363       .  A
N43         C624   1.458   1_655  S
C45          H46   1.076       .  S
O50         Ni56   1.976       .  S
O50          C71   1.284       .  A
O51         Ni74   1.907       .  S
O51          C60   1.267       .  A
O52         Ni56   1.915       .  S
O52         Ni74   1.899       .  S
O52         Ni68   1.898       .  S
O52          H75   0.966       .  S
C53          O70   1.262       .  A
C53          O62   1.264       .  A
C53         C610   1.465       .  S
O54         Ni73   1.910       .  S
O54          C60   1.265       .  A
O55         Ni73   1.901       .  S
O55          C57   1.273       .  A
Ni56         O59   1.975       .  S
Ni56         O61   1.906       .  S
C57          O67   1.298       .  A
C57         C554   1.508       .  S
O58         Ni74   1.890       .  S
O58          C64   1.268       .  A
O59          C64   1.290       .  A
C60         C146   1.467       .  S
O61          C63   1.267       .  A
O62         Ni73   1.909       .  S
C63          O69   1.280       .  A
C63         C568   1.505       .  S
C64         C582   1.494       .  S
H65          O66   0.966       .  S
O66         Ni74   1.926       .  S
O66         Ni68   1.924       .  S
O66         Ni73   1.930       .  S
O67         Ni68   2.007       .  S
Ni68         O72   1.918       .  S
Ni68         O70   1.914       .  S
O69         Ni74   1.958       .  S
C71          O72   1.277       .  A
C71         C543   1.526       .  S
O76         Ni82   1.914       .  S
O76          C97   1.265       .  A
O77        Ni100   1.882       .  S
O77          C86   1.262       .  A
O78         Ni82   1.914       .  S
O78        Ni100   1.908       .  S
O78         Ni94   1.909       .  S
O78         H101   0.966       .  S
C79          O96   1.285       .  A
C79          O88   1.298       .  A
C79         C627   1.484       .  S
O80         Ni99   2.024       .  S
O80          C86   1.296       .  A
O81         Ni99   1.933   1_655  S
O81          C83   1.275       .  A
Ni82         O85   1.911       .  S
Ni82         O87   1.925       .  S
C83          O93   1.282       .  A
C83         C557   1.519       .  S
O84        Ni100   1.889       .  S
O84          C90   1.260       .  A
O85          C90   1.273       .  A
C86         C515   1.519       .  S
O87          C89   1.270       .  A
O88         Ni99   1.978       .  S
C89          O95   1.277       .  A
C89         C571   1.502       .  S
C90         C526   1.461       .  S
H91          O92   0.967       .  S
O92        Ni100   1.863       .  S
O92         Ni94   1.888       .  S
O92         Ni99   1.889       .  S
O93         Ni94   1.954   1_655  S
Ni94         O98   1.943       .  S
Ni94         O96   1.896       .  S
O95        Ni100   1.943       .  S
C97          O98   1.282       .  A
C102        C104   1.534       .  S
C102        C106   1.550       .  S
C102        C105   1.524       .  S
C102        C529   1.524       .  S
C103        C107   1.577       .  S
C103        C109   1.552       .  S
C103        C108   1.551       .  S
C103        C498   1.540       .  S
C104        C112   1.381       .  A
C104        C107   1.388       .  A
C105        C116   1.358       .  A
C105        C108   1.401       .  A
C106        C120   1.384       .  A
C106        C109   1.376       .  A
C107        C110   1.395       .  A
C108        C114   1.395       .  A
C109        C117   1.396       .  A
C110        N111   1.373       .  A
C110        H123   1.078       .  S
N111        C112   1.360       .  A
N111        C585   1.471       .  S
C112        H113   1.068       .  S
C114        N115   1.368       .  A
C114        H124   1.082       .  S
N115        C116   1.341       .  A
N115        C599   1.445       .  S
C116        H122   1.074       .  S
C117        N118   1.364       .  A
C117        H119   1.076       .  S
N118        C120   1.362       .  A
N118        C711   1.468       .  S
C120        H121   1.074       .  S
O125       Ni131   1.915       .  S
O125        C146   1.267       .  A
O126       Ni149   1.913       .  S
O126        C135   1.277       .  A
O127       Ni131   1.929       .  S
O127       Ni149   1.918       .  S
O127       Ni143   1.921       .  S
O127        H150   0.966       .  S
C128        O145   1.264       .  A
C128        O137   1.295       .  A
C128        C641   1.507       .  S
O129       Ni148   1.985       .  S
O129        C135   1.288       .  A
O130       Ni148   1.894       .  S
O130        C132   1.262       .  A
Ni131       O134   1.919       .  S
Ni131       O136   1.902       .  S
C132        O142   1.286       .  A
C132        C680   1.515       .  S
O133       Ni149   1.931       .  S
O133        C139   1.264       .  A
O134        C139   1.263       .  A
C135        C484   1.523       .  S
O136        C138   1.274       .  A
O137       Ni148   2.004       .  S
C138        O144   1.304       .  A
C138        C666   1.527       .  S
C139        C501   1.475       .  S
H140        O141   0.965       .  S
O141       Ni149   1.902       .  S
O141       Ni143   1.895       .  S
O141       Ni148   1.913       .  S
O142       Ni143   1.983       .  S
Ni143       O147   1.904       .  S
Ni143       O145   1.881       .  S
O144       Ni149   2.028       .  S
C146        O147   1.268       .  A
O151       Ni157   2.021       .  S
O151        C172   1.300       .  A
O152       Ni895   1.910       .  S
O152        C161   1.278   1_554  A
O153       Ni157   1.865       .  S
O153       Ni175   1.858       .  S
O153       Ni169   1.862       .  S
O153        H176   0.967       .  S
C154        O171   1.262       .  A
C154        O163   1.266       .  A
C154        C456   1.453       .  S
O155       Ni174   1.906       .  S
O155        C881   1.262       .  A
O156       Ni174   1.933       .  S
O156        C158   1.275       .  A
Ni157       O162   1.924       .  S
Ni157       O880   1.995       .  S
C158        O168   1.274       .  A
C158        C442   1.509       .  S
O159       Ni895   1.885       .  S
O159        C165   1.281       .  A
O160       Ni877   1.999       .  S
O160        C165   1.303       .  A
C161        O875   1.264       .  A
C161        C967   1.462   1_556  S
O162        C164   1.274       .  A
O163       Ni174   1.911       .  S
C164        O170   1.283       .  A
C164        C428   1.529       .  S
C165        C470   1.498       .  S
H166        O167   0.967       .  S
O167       Ni175   1.909       .  S
O167       Ni169   1.911       .  S
O167       Ni174   1.917       .  S
O168       Ni169   1.935       .  S
Ni169       O173   1.873       .  S
Ni169       O171   1.903       .  S
O170       Ni175   1.968       .  S
C172        O173   1.261       .  A
C172        C540   1.511       .  S
Ni175       O872   1.895       .  S
Ni175       O879   1.880       .  S
C177        C179   1.567       .  S
C177        C181   1.556       .  S
C177        C180   1.561       .  S
C177        C386   1.550       .  S
C178        C182   1.539       .  S
C178        C184   1.552       .  S
C178        C183   1.531       .  S
C178        C459   1.531       .  S
C179        C187   1.410       .  A
C179        C182   1.375       .  A
C180        C191   1.398       .  A
C180        C183   1.424       .  A
C181        C195   1.395   1_545  A
C181        C184   1.396       .  A
C182        C185   1.384       .  A
C183        C189   1.380       .  A
C184        C192   1.390       .  A
C185        N186   1.354       .  A
C185        H198   1.071       .  S
N186        C187   1.374       .  A
N186        C417   1.478       .  S
C187        H188   1.079       .  S
C189        N190   1.342       .  A
C189        H199   1.078       .  S
N190        C191   1.355       .  A
N190        C375   1.440       .  S
C191        H197   1.082       .  S
C192        N193   1.364   1_545  A
C192        H194   1.080       .  S
N193        C195   1.359       .  A
N193        C400   1.474       .  S
C195        H196   1.065       .  S
O200       Ni206   1.985       .  S
O200        C221   1.288       .  A
O201       Ni224   1.897       .  S
O201        C210   1.263   1_565  A
O202       Ni206   1.905       .  S
O202       Ni218   1.916       .  S
O202       Ni944   1.896       .  S
O202        H945   0.966       .  S
C203        O220   1.273   1_655  A
C203        O212   1.267       .  A
C203        C389   1.472       .  S
O204       Ni223   1.916   1_545  S
O204        C930   1.262       .  A
O205       Ni223   1.903   1_655  S
O205        C207   1.269       .  A
Ni206       O211   1.889       .  S
Ni206       O929   2.000       .  S
C207        O217   1.293       .  A
C207        C330   1.525       .  S
O208       Ni224   1.874   1_554  S
O208        C214   1.265       .  A
O209       Ni926   1.993   1_554  S
O209        C214   1.291       .  A
C210        O924   1.262       .  A
C210       C1016   1.458   1_556  S
O211        C213   1.264       .  A
O212       Ni223   1.898   1_655  S
C213        O219   1.283       .  A
C213        C347   1.499       .  S
C214        C358   1.491       .  S
H215        O216   0.966       .  S
O216       Ni218   1.926       .  S
O216       Ni223   1.927       .  S
O216       Ni944   1.904       .  S
O217       Ni218   1.997   1_655  S
Ni218       O222   1.927       .  S
Ni218       O220   1.929       .  S
O219       Ni944   1.974       .  S
C221        O222   1.282       .  A
C221        C652   1.540       .  S
Ni224       O939   1.981       .  S
Ni224       O922   1.892       .  S
Ni224       O936   1.925       .  S
H225        O922   0.966       .  S
O226       Ni232   1.878       .  S
O226        C967   1.259   1_565  A
O227       Ni250   1.866       .  S
O227        C236   1.249       .  A
O228       Ni232   1.938       .  S
O228       Ni250   1.918       .  S
O228       Ni244   1.931   1_554  S
O228        H251   0.966       .  S
C229        O246   1.273       .  A
C229        O238   1.304       .  A
C229        C403   1.493       .  S
O230       Ni249   2.037   1_554  S
O230        C236   1.294       .  A
O231       Ni249   1.900   1_554  S
O231        C233   1.267   1_554  A
Ni232       O235   1.904       .  S
Ni232       O237   1.916       .  S
C233        O243   1.292       .  A
C233        C333   1.518       .  S
O234       Ni250   1.895       .  S
O234        C240   1.250       .  A
O235        C240   1.264       .  A
C236        C487   1.523       .  S
O237        C239   1.269       .  A
O238       Ni969   2.001       .  S
C239        O245   1.282       .  A
C239        C344   1.509   1_554  S
C240        C319   1.453       .  S
H241        O242   0.966       .  S
O242       Ni250   1.855   1_556  S
O242       Ni244   1.879       .  S
O242       Ni249   1.895       .  S
O243       Ni244   1.990       .  S
Ni244       O968   1.929       .  S
Ni244       O966   1.883       .  S
O245       Ni250   1.957       .  S
O246       Ni964   1.876       .  S
C247        O248   1.271   1_545  A
C247        O946   1.257   1_545  A
C247        C881   1.447       .  S
O248       Ni964   1.908       .  S
Ni249       O958   2.001       .  S
C252        C254   1.545       .  S
C252        C256   1.555       .  S
C252        C255   1.524       .  S
C252        C316   1.534       .  S
C253        C257   1.565       .  S
C253        C259   1.536   1_565  S
C253        C258   1.574       .  S
C253        C305   1.565   1_565  S
C254        C262   1.383       .  A
C254        C257   1.393       .  A
C255        C266   1.375       .  A
C255        C258   1.424       .  A
C256        C270   1.391       .  A
C256        C259   1.383   1_565  A
C257        C260   1.405       .  A
C258        C264   1.393       .  A
C259        C267   1.379       .  A
C260        N261   1.361       .  A
C260        H273   1.079       .  S
N261        C262   1.341       .  A
N261        C361   1.448       .  S
C262        H263   1.082       .  S
C264        N265   1.356       .  A
C264        H274   1.072   1_565  S
N265        C266   1.341       .  A
N265        C372   1.437   1_565  S
C266        H272   1.076       .  S
C267        N268   1.356       .  A
C267        H269   1.069       .  S
N268        C270   1.366   1_545  A
N268        C473   1.464       .  S
C270        H271   1.077       .  S
O275       Ni281   1.913       .  S
O275       C1016   1.266       .  A
O276       Ni299   1.917       .  S
O276        C285   1.278       .  A
O277       Ni281   1.919       .  S
O277       Ni299   1.914       .  S
O277      Ni1013   1.919       .  S
O277        H300   0.967       .  S
C278        O295   1.271       .  A
C278        O287   1.294       .  A
C278        C414   1.499       .  S
O279       Ni298   1.986       .  S
O279        C285   1.289       .  A
O280       Ni298   1.899   1_655  S
O280        C282   1.268       .  A
Ni281       O284   1.919       .  S
Ni281       O286   1.886       .  S
C282        O292   1.279   1_655  A
C282        C445   1.490       .  S
O283       Ni299   1.927       .  S
O283        C289   1.267       .  A
O284        C289   1.265       .  A
C285        C512   1.532       .  S
O286        C288   1.269       .  A
O287      Ni1018   1.983       .  S
C288        O294   1.299       .  A
C288        C431   1.509       .  S
C289        C302   1.472       .  S
H290        O291   0.961       .  S
O291       Ni299   1.906       .  S
O291       Ni298   1.903       .  S
O291      Ni1013   1.890       .  S
O292      Ni1013   1.948       .  S
Ni293       O297   1.894       .  S
Ni293       O295   1.891       .  S
Ni293      O1012   1.952   1_455  S
Ni293       O997   1.911       .  S
Ni293      O1011   1.884       .  S
O294       Ni299   2.017       .  S
C296        O297   1.264       .  A
C296        O995   1.265       .  A
C296        C930   1.456       .  S
Ni298      O1007   1.989   1_554  S
C301        C302   1.398       .  A
C301        C306   1.407       .  A
C301        H308   1.084       .  S
C302        C303   1.408       .  A
C303        C304   1.405       .  A
C303        N310   1.429       .  S
C304        C305   1.410       .  A
C304        H309   1.082   1_545  S
C305        C306   1.423       .  A
C306        N307   1.432       .  S
N307        O311   1.261       .  A
N307        O312   1.263       .  A
N310        O314   1.262       .  A
N310        O313   1.262       .  A
C315        C316   1.409       .  A
C315        C320   1.379       .  A
C315        H322   1.079       .  S
C316        C317   1.423       .  A
C317        C318   1.410       .  A
C317        N324   1.429       .  S
C318        C319   1.401       .  A
C318        H323   1.083       .  S
C319        C320   1.396       .  A
C320        N321   1.439       .  S
N321        O325   1.261       .  A
N321        O326   1.263       .  A
N324        O328   1.263       .  A
N324        O327   1.262       .  A
C329        C330   1.410       .  A
C329        C334   1.425       .  A
C329        H336   1.083       .  S
C330       C1051   1.424       .  A
C331        C332   1.409       .  A
C331       C1050   1.434       .  A
C331        N338   1.428       .  S
C332        C333   1.393       .  A
C332        H337   1.084   1_556  S
C333       C1054   1.430       .  A
C334       C1053   1.426       .  A
C334        N335   1.429       .  S
N335        O339   1.262       .  A
N335        O340   1.262       .  A
N338        O342   1.262   1_556  A
N338        O341   1.261       .  A
C343        C344   1.399       .  A
C343        C348   1.394       .  A
C343        H350   1.082   1_556  S
C344       C1065   1.431       .  A
C345        C346   1.425       .  A
C345       C1064   1.428       .  A
C345        N352   1.443       .  S
C346        C347   1.406       .  A
C346        H351   1.083       .  S
C347       C1068   1.418       .  A
C348       C1067   1.420       .  A
C348        N349   1.430       .  S
N349        O353   1.262       .  A
N349        O354   1.262   1_556  A
N352        O356   1.263       .  A
N352        O355   1.262       .  A
C357        C358   1.408       .  A
C357        C362   1.396       .  A
C357        H364   1.085       .  S
C358        C359   1.410       .  A
C359        C360   1.417       .  A
C359        N366   1.427       .  S
C360        C361   1.412       .  A
C360        H365   1.083       .  S
C361        C362   1.409       .  A
C362        N363   1.430       .  S
N363        O367   1.262       .  A
N363        O368   1.261       .  A
N366        O370   1.262       .  A
N366        O369   1.262       .  A
C371        C372   1.403   1_565  A
C371        C376   1.404       .  A
C371        H378   1.083       .  S
C372        C373   1.405       .  A
C373        C374   1.403       .  A
C373        N380   1.428       .  S
C374        C375   1.406       .  A
C374        H379   1.083       .  S
C375        C376   1.410   1_545  A
C376        N377   1.426       .  S
N377        O381   1.262       .  A
N377        O382   1.261       .  A
N380        O384   1.262       .  A
N380        O383   1.261       .  A
C385        C386   1.401   1_565  A
C385        C390   1.406       .  A
C385        H392   1.081       .  S
C386        C387   1.412       .  A
C387        C388   1.406       .  A
C387        N394   1.438       .  S
C388        C389   1.405   1_545  A
C388        H393   1.083   1_655  S
C389        C390   1.416       .  A
C390        N391   1.434       .  S
N391        O395   1.261       .  A
N391        O396   1.262       .  A
N394        O398   1.263       .  A
N394        O397   1.263   1_655  A
C399        C400   1.409       .  A
C399        C404   1.403       .  A
C399        H406   1.080   1_565  S
C400        C401   1.433       .  A
C401        C402   1.411       .  A
C401        N408   1.427       .  S
C402        C403   1.395       .  A
C402        H407   1.084       .  S
C403        C404   1.418       .  A
C404        N405   1.431       .  S
N405        O409   1.262       .  A
N405        O410   1.262       .  A
N408        O412   1.262       .  A
N408        O411   1.262       .  A
C413        C414   1.397   1_655  A
C413        C418   1.413       .  A
C413        H420   1.084       .  S
C414        C415   1.416       .  A
C415        C416   1.410       .  A
C415        N422   1.433       .  S
C416        C417   1.411   1_455  A
C416        H421   1.080       .  S
C417        C418   1.437       .  A
C418        N419   1.428       .  S
N419        O423   1.262       .  A
N419        O424   1.262       .  A
N422        O426   1.263       .  A
N422        O425   1.261       .  A
C427        C432   1.424       .  A
C427       C1148   1.423       .  A
C427        H434   1.083       .  S
C428        C429   1.421       .  A
C428       C1147   1.419       .  A
C429        C430   1.409       .  A
C429        N436   1.427       .  S
C430       C1151   1.409       .  A
C430        H435   1.084       .  S
C431        C432   1.411       .  A
C431       C1150   1.406       .  A
C432        N433   1.428       .  S
N433        O437   1.262       .  A
N433        O438   1.262       .  A
N436        O440   1.260       .  A
N436        O439   1.261       .  A
C441        C442   1.413       .  A
C441        C446   1.411       .  A
C441        H448   1.083       .  S
C442       C1163   1.417       .  A
C443        C444   1.407       .  A
C443       C1162   1.416   1_554  A
C443        N450   1.428       .  S
C444        C445   1.406       .  A
C444        H449   1.084       .  S
C445       C1166   1.416   1_554  A
C446       C1165   1.415       .  A
C446        N447   1.428       .  S
N447        O451   1.262       .  A
N447        O452   1.262       .  A
N450        O454   1.262       .  A
N450        O453   1.262       .  A
C455        C456   1.402       .  A
C455        C460   1.409       .  A
C455        H462   1.083       .  S
C456        C457   1.399       .  A
C457        C458   1.382       .  A
C457        N464   1.440       .  S
C458        C459   1.407       .  A
C458        H463   1.083       .  S
C459        C460   1.422       .  A
C460        N461   1.430       .  S
N461        O465   1.263       .  A
N461        O466   1.262       .  A
N464        O468   1.263       .  A
N464        O467   1.263       .  A
C469        C470   1.410       .  A
C469        C474   1.403       .  A
C469        H476   1.084       .  S
C470        C471   1.413       .  A
C471        C472   1.413       .  A
C471        N478   1.440       .  S
C472        C473   1.418       .  A
C472        H477   1.079       .  S
C473        C474   1.418       .  A
C474        N475   1.428       .  S
N475        O479   1.262       .  A
N475        O480   1.262       .  A
N478        O482   1.262       .  A
N478        O481   1.262       .  A
C483        C484   1.417       .  A
C483        C488   1.424       .  A
C483        H490   1.083       .  S
C484        C485   1.413       .  A
C485        C486   1.412       .  A
C485        N492   1.429       .  S
C486        C487   1.416       .  A
C486        H491   1.083       .  S
C487        C488   1.416       .  A
C488        N489   1.427       .  S
N489        O493   1.262       .  A
N489        O494   1.262       .  A
N492        O496   1.260       .  A
N492        O495   1.262       .  A
C497        C498   1.403       .  A
C497        C502   1.402       .  A
C497        H504   1.083       .  S
C498        C499   1.411       .  A
C499        C500   1.407       .  A
C499        N506   1.438       .  S
C500        C501   1.405       .  A
C500        H505   1.083       .  S
C501        C502   1.408       .  A
C502        N503   1.425       .  S
N503        O507   1.262       .  A
N503        O508   1.262       .  A
N506        O510   1.263       .  A
N506        O509   1.263       .  A
C511        C512   1.417       .  A
C511        C516   1.423       .  A
C511        H518   1.083   1_455  S
C512        C513   1.422       .  A
C513        C514   1.414       .  A
C513        N520   1.428       .  S
C514        C515   1.409       .  A
C514        H519   1.084       .  S
C515        C516   1.418       .  A
C516        N517   1.428   1_455  S
N517        O521   1.262       .  A
N517        O522   1.262       .  A
N520        O524   1.261       .  A
N520        O523   1.262       .  A
C525        C526   1.398       .  A
C525        C530   1.391       .  A
C525        H532   1.084       .  S
C526        C527   1.412       .  A
C527        C528   1.391       .  A
C527        N534   1.425       .  S
C528        C529   1.391       .  A
C528        H533   1.082       .  S
C529        C530   1.421       .  A
C530        N531   1.433       .  S
N531        O535   1.261       .  A
N531        O536   1.259       .  A
N534        O538   1.261       .  A
N534        O537   1.260       .  A
C539        C540   1.407       .  A
C539        C544   1.419       .  A
C539        H546   1.084       .  S
C540        C541   1.418       .  A
C541        C542   1.415       .  A
C541        N548   1.429       .  S
C542        C543   1.410       .  A
C542        H547   1.082       .  S
C543        C544   1.423       .  A
C544        N545   1.428       .  S
N545        O549   1.262       .  A
N545        O550   1.262       .  A
N548        O552   1.262       .  A
N548        O551   1.262       .  A
C553        C554   1.409       .  A
C553        C558   1.423       .  A
C553        H560   1.083       .  S
C554        C555   1.413       .  A
C555        C556   1.407       .  A
C555        N562   1.427       .  S
C556        C557   1.409       .  A
C556        H561   1.084       .  S
C557        C558   1.423       .  A
C558        N559   1.428       .  S
N559        O563   1.262       .  A
N559        O564   1.262       .  A
N562        O566   1.261       .  A
N562        O565   1.260       .  A
C567        C568   1.409       .  A
C567        C572   1.408       .  A
C567        H574   1.084       .  S
C568        C569   1.419       .  A
C569        C570   1.408       .  A
C569        N576   1.429       .  S
C570        C571   1.406       .  A
C570        H575   1.084       .  S
C571        C572   1.417       .  A
C572        N573   1.429       .  S
N573        O577   1.261       .  A
N573        O578   1.260       .  A
N576        O580   1.262       .  A
N576        O579   1.262       .  A
C581        C582   1.398       .  A
C581        C586   1.406       .  A
C581        H588   1.084       .  S
C582        C583   1.415       .  A
C583        C584   1.405       .  A
C583        N590   1.429       .  S
C584        C585   1.411       .  A
C584        H589   1.081       .  S
C585        C586   1.433       .  A
C586        N587   1.425       .  S
N587        O591   1.261       .  A
N587        O592   1.262       .  A
N590        O594   1.262       .  A
N590        O593   1.262       .  A
C595        C596   1.402       .  A
C595        C600   1.407       .  A
C595        H602   1.083       .  S
C596       C1317   1.411       .  A
C597        C598   1.397       .  A
C597       C1316   1.411   1_554  A
C597        N604   1.428       .  S
C598        C599   1.405       .  A
C598        H603   1.082       .  S
C599       C1320   1.422   1_554  A
C600       C1319   1.421       .  A
C600        N601   1.440       .  S
N601        O605   1.263       .  A
N601        O606   1.263       .  A
N604        O608   1.262   1_554  A
N604        O607   1.262       .  A
C609        C610   1.405       .  A
C609        C614   1.402       .  A
C609        H616   1.084       .  S
C610        C611   1.407       .  A
C611        C612   1.401       .  A
C611        N618   1.427       .  S
C612        C613   1.401       .  A
C612        H617   1.079       .  S
C613        C614   1.410       .  A
C614        N615   1.433       .  S
N615        O619   1.262       .  A
N615        O620   1.262       .  A
N618        O622   1.261       .  A
N618        O621   1.262       .  A
C623        C624   1.413   1_655  A
C623        C628   1.407       .  A
C623        H630   1.081       .  S
C624        C625   1.422       .  A
C625        C626   1.402       .  A
C625        N632   1.437       .  S
C626        C627   1.401       .  A
C626        H631   1.084       .  S
C627        C628   1.406   1_455  A
C628        N629   1.429       .  S
N629        O633   1.261       .  A
N629        O634   1.262       .  A
N632        O636   1.263       .  A
N632        O635   1.261       .  A
C637        C638   1.409       .  A
C637        C642   1.405       .  A
C637        H644   1.079       .  S
C638        C639   1.435       .  A
C639        C640   1.415       .  A
C639        N646   1.426       .  S
C640        C641   1.402       .  A
C640        H645   1.084       .  S
C641        C642   1.420       .  A
C642        N643   1.430       .  S
N643        O647   1.262       .  A
N643        O648   1.262       .  A
N646        O650   1.262       .  A
N646        O649   1.261       .  A
C651        C652   1.421       .  A
C651        C656   1.428       .  A
C651        H658   1.083       .  S
C652        C653   1.420       .  A
C653        C654   1.415       .  A
C653        N660   1.424   1_455  S
C654        C655   1.411       .  A
C654        H659   1.084       .  S
C655        C656   1.417       .  A
C656        N657   1.427       .  S
N657        O661   1.262       .  A
N657        O662   1.261       .  A
N660        O664   1.262       .  A
N660        O663   1.261       .  A
C665        C666   1.415       .  A
C665        C670   1.415       .  A
C665        H672   1.084       .  S
C666        C667   1.414       .  A
C667        C668   1.425       .  A
C667        N674   1.428       .  S
C668        C669   1.422       .  A
C668        H673   1.083       .  S
C669        C670   1.419       .  A
C670        N671   1.428       .  S
N671        O675   1.262       .  A
N671        O676   1.262       .  A
N674        O678   1.262       .  A
N674        O677   1.262       .  A
C679        C680   1.404       .  A
C679        C684   1.408       .  A
C679        H686   1.084       .  S
C680        C681   1.429       .  A
C681        C682   1.414       .  A
C681        N688   1.429       .  S
C682        C683   1.401       .  A
C682        H687   1.084       .  S
C683        C684   1.423       .  A
C684        N685   1.428       .  S
N685        O689   1.261       .  A
N685        O690   1.262       .  A
N688        O692   1.262       .  A
N688        O691   1.262       .  A
C693        C694   1.413   1_455  A
C693        C698   1.393       .  A
C693        H700   1.083   1_455  S
C694        C695   1.421   1_655  A
C695        C696   1.391       .  A
C695        N702   1.439       .  S
C696        C697   1.395       .  A
C696        H701   1.086       .  S
C697        C698   1.399       .  A
C698        N699   1.428       .  S
N699        O703   1.262   1_455  A
N699        O704   1.262       .  A
N702        O706   1.263       .  A
N702        O705   1.262   1_455  A
C707        C708   1.399       .  A
C707        C712   1.396       .  A
C707        H714   1.085       .  S
C708        C709   1.404       .  A
C709        C710   1.414       .  A
C709        N716   1.427       .  S
C710        C711   1.421       .  A
C710        H715   1.080       .  S
C711        C712   1.425       .  A
C712        N713   1.426       .  S
N713        O717   1.262       .  A
N713        O718   1.262       .  A
N716        O720   1.262       .  A
N716        O719   1.259       .  A
O721       Ni727   2.034       .  S
O721        C742   1.296       .  A
O722       Ni745   1.943       .  S
O722        C731   1.286       .  A
O723       Ni727   1.892       .  S
O723       Ni745   1.884       .  S
O723       Ni739   1.850       .  S
O723        H746   0.966       .  S
C724        O741   1.246       .  A
C724        O733   1.261       .  A
C724       C1417   1.460       .  S
O725       Ni744   1.913       .  S
O725        C731   1.270       .  A
O726       Ni744   1.898   1_655  S
O726        C728   1.267       .  A
Ni727       O730   1.987       .  S
Ni727       O732   1.918       .  S
C728        O738   1.295       .  A
C728       C1403   1.507       .  S
O729       Ni745   1.877       .  S
O729        C735   1.281       .  A
O730        C735   1.301       .  A
C731        C817   1.482       .  S
O732        C734   1.273       .  A
O733       Ni744   1.914       .  S
C734        O740   1.288       .  A
C734       C1389   1.530       .  S
C735       C1428   1.483       .  S
H736        O737   0.966       .  S
O737       Ni745   1.913       .  S
O737       Ni739   1.933       .  S
O737       Ni744   1.926       .  S
O738       Ni739   1.999   1_655  S
Ni739       O743   1.868       .  S
Ni739       O741   1.915       .  S
O740       Ni745   1.974       .  S
C742        O743   1.254       .  A
C742       C1375   1.525       .  S
C747        C749   1.572       .  S
C747        C751   1.560       .  S
C747        C750   1.564       .  S
C747       C1333   1.539       .  S
C748        C752   1.510       .  S
C748        C754   1.536       .  S
C748        C753   1.529       .  S
C748       C1414   1.513   1_655  S
C749        C757   1.405       .  A
C749        C752   1.371       .  A
C750        C761   1.396       .  A
C750        C753   1.424       .  A
C751        C765   1.397       .  A
C751        C754   1.376       .  A
C752        C755   1.373       .  A
C753        C759   1.367       .  A
C754        C762   1.369   1_655  A
C755        N756   1.355       .  A
C755        H768   1.078       .  S
N756        C757   1.375       .  A
N756       C1358   1.468       .  S
C757        H758   1.080       .  S
C759        N760   1.342       .  A
C759        H769   1.084   1_655  S
N760        C761   1.362       .  A
N760       C1316   1.440   1_655  S
C761        H767   1.083       .  S
C762        N763   1.354   1_455  A
C762        H764   1.072       .  S
N763        C765   1.366       .  A
N763       C1344   1.460   1_655  S
C765        H766   1.075       .  S
O770       Ni776   1.988       .  S
O770        C791   1.287       .  A
O771       Ni794   1.910       .  S
O771        C780   1.268       .  A
O772       Ni776   1.914       .  S
O772       Ni794   1.898       .  S
O772       Ni788   1.894       .  S
O772        H795   0.966       .  S
C773        O790   1.261       .  A
C773        O782   1.265       .  A
C773       C1330   1.464       .  S
O774       Ni793   1.917       .  S
O774        C780   1.267       .  A
O775       Ni793   1.902       .  S
O775        C777   1.275       .  A
Ni776       O779   1.989       .  S
Ni776       O781   1.903       .  S
C777        O787   1.302       .  A
C777       C1274   1.513       .  S
O778       Ni794   1.884       .  S
O778        C784   1.267       .  A
O779        C784   1.293       .  A
C780        C866   1.473       .  S
O781        C783   1.266       .  A
O782       Ni793   1.917       .  S
C783        O789   1.280       .  A
C783       C1288   1.511       .  S
C784       C1302   1.501       .  S
H785        O786   0.966       .  S
O786       Ni794   1.925       .  S
O786       Ni788   1.921       .  S
O786       Ni793   1.927       .  S
O787       Ni788   2.018       .  S
Ni788       O792   1.915       .  S
Ni788       O790   1.913       .  S
O789       Ni794   1.965       .  S
C791        O792   1.277       .  A
C791       C1263   1.532       .  S
O796       Ni802   1.917       .  S
O796        C817   1.265       .  A
O797       Ni820   1.881       .  S
O797        C806   1.261       .  A
O798       Ni802   1.921       .  S
O798       Ni820   1.915       .  S
O798       Ni814   1.911       .  S
O798        H821   0.966       .  S
C799        O816   1.283       .  A
C799        O808   1.297       .  A
C799       C1347   1.483       .  S
O800       Ni819   2.023       .  S
O800        C806   1.296       .  A
O801       Ni819   1.930   1_655  S
O801        C803   1.275       .  A
Ni802       O805   1.910       .  S
Ni802       O807   1.926       .  S
C803        O813   1.286       .  A
C803       C1277   1.525       .  S
O804       Ni820   1.894       .  S
O804        C810   1.260       .  A
O805        C810   1.272       .  A
C806       C1235   1.519       .  S
O807        C809   1.270       .  A
O808       Ni819   1.976       .  S
C809        O815   1.277       .  A
C809       C1291   1.507       .  S
C810       C1246   1.462       .  S
H811        O812   0.967       .  S
O812       Ni820   1.864       .  S
O812       Ni814   1.887       .  S
O812       Ni819   1.890       .  S
O813       Ni814   1.967   1_655  S
Ni814       O818   1.940       .  S
Ni814       O816   1.892       .  S
O815       Ni820   1.942       .  S
C817        O818   1.282       .  A
C822        C824   1.535       .  S
C822        C826   1.555       .  S
C822        C825   1.524       .  S
C822       C1249   1.524       .  S
C823        C827   1.576       .  S
C823        C829   1.546       .  S
C823        C828   1.550       .  S
C823       C1218   1.543       .  S
C824        C832   1.383       .  A
C824        C827   1.391       .  A
C825        C836   1.357       .  A
C825        C828   1.402       .  A
C826        C840   1.386       .  A
C826        C829   1.377       .  A
C827        C830   1.394       .  A
C828        C834   1.399       .  A
C829        C837   1.388       .  A
C830        N831   1.372       .  A
C830        H843   1.078       .  S
N831        C832   1.359       .  A
N831       C1305   1.473       .  S
C832        H833   1.068       .  S
C834        N835   1.366       .  A
C834        H844   1.082       .  S
N835        C836   1.340       .  A
N835       C1319   1.443       .  S
C836        H842   1.079       .  S
C837        N838   1.360       .  A
C837        H839   1.071       .  S
N838        C840   1.365       .  A
N838       C1431   1.468       .  S
C840        H841   1.072       .  S
O845       Ni851   1.920       .  S
O845        C866   1.268       .  A
O846       Ni869   1.915       .  S
O846        C855   1.277       .  A
O847       Ni851   1.926       .  S
O847       Ni869   1.919       .  S
O847       Ni863   1.919       .  S
O847        H870   0.966       .  S
C848        O865   1.263       .  A
C848        O857   1.294       .  A
C848       C1361   1.503       .  S
O849       Ni868   1.979       .  S
O849        C855   1.285       .  A
O850       Ni868   1.883       .  S
O850        C852   1.256       .  A
Ni851       O854   1.920       .  S
Ni851       O856   1.904       .  S
C852        O862   1.284       .  A
C852       C1400   1.500       .  S
O853       Ni869   1.925       .  S
O853        C859   1.264       .  A
O854        C859   1.263       .  A
C855       C1204   1.527       .  S
O856        C858   1.275       .  A
O857       Ni868   2.003       .  S
C858        O864   1.301       .  A
C858       C1386   1.525       .  S
C859       C1221   1.471       .  S
H860        O861   0.966       .  S
O861       Ni869   1.905       .  S
O861       Ni863   1.909       .  S
O861       Ni868   1.913       .  S
O862       Ni863   1.987       .  S
Ni863       O867   1.909       .  S
Ni863       O865   1.886       .  S
O864       Ni869   2.020       .  S
C866        O867   1.268       .  A
O871       Ni877   2.024   1_556  S
O871        C892   1.299       .  A
O872        C881   1.273       .  A
O873       Ni877   1.868       .  S
O873       Ni895   1.868       .  S
O873       Ni889   1.860   1_554  S
O873        H896   0.967       .  S
C874        O891   1.260       .  A
C874        O883   1.267       .  A
C874       C1176   1.453       .  S
O875       Ni894   1.915       .  S
O876       Ni894   1.928       .  S
O876        C878   1.274       .  A
Ni877       O882   1.915   1_554  S
C878        O888   1.274       .  A
C878       C1162   1.500       .  S
O879        C885   1.281       .  A
O880        C885   1.303       .  A
O882        C884   1.271   1_556  A
O883       Ni894   1.915       .  S
C884        O890   1.284       .  A
C884       C1148   1.525       .  S
C885       C1190   1.490       .  S
H886        O887   0.966       .  S
O887       Ni895   1.907   1_556  S
O887       Ni889   1.912       .  S
O887       Ni894   1.917       .  S
O888       Ni889   1.936       .  S
Ni889       O893   1.876       .  S
Ni889       O891   1.894       .  S
O890       Ni895   1.973       .  S
C892        O893   1.261       .  A
C892       C1260   1.517       .  S
C897        C899   1.566       .  S
C897        C901   1.549       .  S
C897        C900   1.564       .  S
C897       C1106   1.548       .  S
C898        C902   1.547       .  S
C898        C904   1.550       .  S
C898        C903   1.534       .  S
C898       C1179   1.527       .  S
C899        C907   1.407       .  A
C899        C902   1.383       .  A
C900        C911   1.399       .  A
C900        C903   1.421       .  A
C901        C915   1.390   1_545  A
C901        C904   1.391       .  A
C902        C905   1.390       .  A
C903        C909   1.383       .  A
C904        C912   1.393       .  A
C905        N906   1.355       .  A
C905        H918   1.073       .  S
N906        C907   1.372       .  A
N906       C1137   1.478       .  S
C907        H908   1.078       .  S
C909        N910   1.343       .  A
C909        H919   1.078       .  S
N910        C911   1.357       .  A
N910       C1095   1.443       .  S
C911        H917   1.081       .  S
C912        N913   1.359       .  A
C912        H914   1.082       .  S
N913        C915   1.356   1_545  A
N913       C1120   1.457   1_545  S
C915        H916   1.076       .  S
O920       Ni926   1.974       .  S
O920        C941   1.284       .  A
O921       Ni944   1.894       .  S
O921        C930   1.261   1_565  A
O922       Ni926   1.908       .  S
O922       Ni938   1.914       .  S
C923        O940   1.271   1_655  A
C923        O932   1.265       .  A
C923       C1109   1.486       .  S
O924       Ni943   1.906   1_545  S
O925       Ni943   1.895   1_655  S
O925        C927   1.267       .  A
Ni926       O931   1.891       .  S
C927        O937   1.300       .  A
C927       C1050   1.536       .  S
O928       Ni944   1.874       .  S
O928        C934   1.263       .  A
O929        C934   1.294       .  A
O931        C933   1.263       .  A
O932       Ni943   1.908   1_655  S
C933        O939   1.285       .  A
C933       C1067   1.507       .  S
C934       C1078   1.494       .  S
H935        O936   0.966       .  S
O936       Ni938   1.932       .  S
O936       Ni943   1.934       .  S
O937       Ni938   2.019   1_655  S
Ni938       O942   1.923       .  S
Ni938       O940   1.942       .  S
C941        O942   1.281       .  A
C941       C1372   1.530       .  S
O946       Ni952   1.874       .  S
O947       Ni970   1.862       .  S
O947        C956   1.252       .  A
O948       Ni952   1.935       .  S
O948       Ni970   1.921       .  S
O948       Ni964   1.933       .  S
O948        H971   0.966       .  S
C949        O966   1.273       .  A
C949        O958   1.303       .  A
C949       C1123   1.489       .  S
O950       Ni969   2.034       .  S
O950        C956   1.294       .  A
O951       Ni969   1.908       .  S
O951        C953   1.269       .  A
Ni952       O955   1.895       .  S
Ni952       O957   1.916       .  S
C953        O963   1.288       .  A
C953       C1053   1.520       .  S
O954       Ni970   1.909       .  S
O954        C960   1.257       .  A
O955        C960   1.263       .  A
C956       C1207   1.519       .  S
O957        C959   1.269       .  A
C959        O965   1.280       .  A
C959       C1064   1.503       .  S
C960       C1039   1.459       .  S
H961        O962   0.966       .  S
O962       Ni970   1.860       .  S
O962       Ni964   1.866       .  S
O962       Ni969   1.890       .  S
O963       Ni964   1.972       .  S
O965       Ni970   1.954       .  S
C967        O968   1.278   1_544  A
C972        C974   1.545       .  S
C972        C976   1.554       .  S
C972        C975   1.529       .  S
C972       C1036   1.535       .  S
C973        C977   1.565       .  S
C973        C979   1.536   1_565  S
C973        C978   1.568       .  S
C973       C1025   1.562   1_565  S
C974        C982   1.384       .  A
C974        C977   1.392       .  A
C975        C986   1.380       .  A
C975        C978   1.424       .  A
C976        C990   1.388       .  A
C976        C979   1.387   1_565  A
C977        C980   1.407       .  A
C978        C984   1.394   1_565  A
C979        C987   1.377       .  A
C980        N981   1.362       .  A
C980        H993   1.081       .  S
N981        C982   1.343       .  A
N981       C1081   1.449       .  S
C982        H983   1.082       .  S
C984        N985   1.354   1_545  A
C984        H994   1.073       .  S
N985        C986   1.342       .  A
N985       C1092   1.439   1_565  S
C986        H992   1.078       .  S
C987        N988   1.356       .  A
C987        H989   1.068       .  S
N988        C990   1.364   1_545  A
N988       C1193   1.460       .  S
C990        H991   1.076       .  S
O995      Ni1001   1.916       .  S
O996      Ni1019   1.917       .  S
O996       C1005   1.278       .  A
O997      Ni1001   1.917       .  S
O997      Ni1019   1.922       .  S
O997       H1020   0.966       .  S
C998       O1015   1.269       .  A
C998       O1007   1.293       .  A
C998       C1134   1.508       .  S
O999      Ni1018   1.984       .  S
O999       C1005   1.289       .  A
O1000     Ni1018   1.899   1_655  S
O1000      C1002   1.269       .  A
Ni1001     O1004   1.906       .  S
Ni1001     O1006   1.905       .  S
C1002      O1012   1.281       .  A
C1002      C1165   1.501       .  S
O1003     Ni1019   1.930       .  S
O1003      C1009   1.273       .  A
O1004      C1009   1.268       .  A
C1005      C1232   1.529       .  S
O1006      C1008   1.270       .  A
C1008      O1014   1.289       .  A
C1008      C1151   1.518       .  S
C1009      C1022   1.472       .  S
H1010      O1011   0.996       .  S
O1011     Ni1019   1.906       .  S
O1011     Ni1018   1.888       .  S
Ni1013     O1017   1.892       .  S
Ni1013     O1015   1.883   1_554  S
O1014     Ni1019   1.987       .  S
C1016      O1017   1.265       .  A
C1021      C1022   1.398       .  A
C1021      C1026   1.406       .  A
C1021      H1028   1.083       .  S
C1022      C1023   1.410       .  A
C1023      C1024   1.403       .  A
C1023      N1030   1.429       .  S
C1024      C1025   1.409       .  A
C1024      H1029   1.083   1_545  S
C1025      C1026   1.422       .  A
C1026      N1027   1.435       .  S
N1027      O1031   1.261       .  A
N1027      O1032   1.263       .  A
N1030      O1034   1.262       .  A
N1030      O1033   1.262   1_545  A
C1035      C1036   1.405       .  A
C1035      C1040   1.382       .  A
C1035      H1042   1.078       .  S
C1036      C1037   1.423       .  A
C1037      C1038   1.414       .  A
C1037      N1044   1.430       .  S
C1038      C1039   1.404       .  A
C1038      H1043   1.083       .  S
C1039      C1040   1.397       .  A
C1040      N1041   1.436       .  S
N1041      O1045   1.262       .  A
N1041      O1046   1.263       .  A
N1044      O1048   1.263       .  A
N1044      O1047   1.262       .  A
C1049      C1050   1.410       .  A
C1049      C1054   1.424       .  A
C1049      H1056   1.083       .  S
C1051      C1052   1.408       .  A
C1051      N1058   1.425       .  S
C1052      C1053   1.402       .  A
C1052      H1057   1.084       .  S
C1054      N1055   1.430       .  S
N1055      O1059   1.262       .  A
N1055      O1060   1.262       .  A
N1058      O1062   1.259   1_565  A
N1058      O1061   1.257       .  A
C1063      C1064   1.396       .  A
C1063      C1068   1.393       .  A
C1063      H1070   1.080       .  S
C1065      C1066   1.428       .  A
C1065      N1072   1.444       .  S
C1066      C1067   1.407       .  A
C1066      H1071   1.083       .  S
C1068      N1069   1.430       .  S
N1069      O1073   1.262       .  A
N1069      O1074   1.262       .  A
N1072      O1076   1.263   1_565  A
N1072      O1075   1.263       .  A
C1077      C1078   1.409       .  A
C1077      C1082   1.400       .  A
C1077      H1084   1.085       .  S
C1078      C1079   1.411       .  A
C1079      C1080   1.417       .  A
C1079      N1086   1.427       .  S
C1080      C1081   1.411       .  A
C1080      H1085   1.083       .  S
C1081      C1082   1.409       .  A
C1082      N1083   1.430       .  S
N1083      O1087   1.262       .  A
N1083      O1088   1.261       .  A
N1086      O1090   1.262       .  A
N1086      O1089   1.262       .  A
C1091      C1092   1.401   1_565  A
C1091      C1096   1.405       .  A
C1091      H1098   1.083       .  S
C1092      C1093   1.406       .  A
C1093      C1094   1.406       .  A
C1093      N1100   1.428       .  S
C1094      C1095   1.407       .  A
C1094      H1099   1.083       .  S
C1095      C1096   1.410   1_545  A
C1096      N1097   1.426       .  S
N1097      O1101   1.261       .  A
N1097      O1102   1.261       .  A
N1100      O1104   1.260       .  A
N1100      O1103   1.261       .  A
C1105      C1106   1.401   1_565  A
C1105      C1110   1.406       .  A
C1105      H1112   1.082       .  S
C1106      C1107   1.412       .  A
C1107      C1108   1.409   1_545  A
C1107      N1114   1.439       .  S
C1108      C1109   1.408       .  A
C1108      H1113   1.083   1_665  S
C1109      C1110   1.415       .  A
C1110      N1111   1.426       .  S
N1111      O1115   1.259       .  A
N1111      O1116   1.263       .  A
N1114      O1118   1.263       .  A
N1114      O1117   1.263   1_655  A
C1119      C1120   1.406       .  A
C1119      C1124   1.410       .  A
C1119      H1126   1.083       .  S
C1120      C1121   1.417       .  A
C1121      C1122   1.405       .  A
C1121      N1128   1.428       .  S
C1122      C1123   1.398       .  A
C1122      H1127   1.082       .  S
C1123      C1124   1.419       .  A
C1124      N1125   1.430       .  S
N1125      O1129   1.262       .  A
N1125      O1130   1.262       .  A
N1128      O1132   1.260       .  A
N1128      O1131   1.262       .  A
C1133      C1134   1.401   1_655  A
C1133      C1138   1.417       .  A
C1133      H1140   1.083       .  S
C1134      C1135   1.420       .  A
C1135      C1136   1.408       .  A
C1135      N1142   1.434       .  S
C1136      C1137   1.410   1_455  A
C1136      H1141   1.079       .  S
C1137      C1138   1.434       .  A
C1138      N1139   1.428       .  S
N1139      O1143   1.262       .  A
N1139      O1144   1.262       .  A
N1142      O1146   1.263       .  A
N1142      O1145   1.262       .  A
C1147      C1152   1.424       .  A
C1147      H1154   1.083       .  S
C1148      C1149   1.421       .  A
C1149      C1150   1.406       .  A
C1149      N1156   1.430       .  S
C1150      H1155   1.085       .  S
C1151      C1152   1.416       .  A
C1152      N1153   1.428       .  S
N1153      O1157   1.262       .  A
N1153      O1158   1.262       .  A
N1156      O1160   1.261       .  A
N1156      O1159   1.261       .  A
C1161      C1162   1.406       .  A
C1161      C1166   1.405       .  A
C1161      H1168   1.084       .  S
C1163      C1164   1.404       .  A
C1163      N1170   1.429       .  S
C1164      C1165   1.407       .  A
C1164      H1169   1.084       .  S
C1166      N1167   1.430       .  S
N1167      O1171   1.260       .  A
N1167      O1172   1.261       .  A
N1170      O1174   1.262       .  A
N1170      O1173   1.262       .  A
C1175      C1176   1.402       .  A
C1175      C1180   1.409       .  A
C1175      H1182   1.083       .  S
C1176      C1177   1.400       .  A
C1177      C1178   1.379       .  A
C1177      N1184   1.440       .  S
C1178      C1179   1.405       .  A
C1178      H1183   1.082       .  S
C1179      C1180   1.422       .  A
C1180      N1181   1.431       .  S
N1181      O1185   1.263       .  A
N1181      O1186   1.262       .  A
N1184      O1188   1.261       .  A
N1184      O1187   1.262       .  A
C1189      C1190   1.408       .  A
C1189      C1194   1.402       .  A
C1189      H1196   1.084       .  S
C1190      C1191   1.403       .  A
C1191      C1192   1.404       .  A
C1191      N1198   1.430       .  S
C1192      C1193   1.417       .  A
C1192      H1197   1.080       .  S
C1193      C1194   1.421       .  A
C1194      N1195   1.429       .  S
N1195      O1199   1.262       .  A
N1195      O1200   1.262       .  A
N1198      O1202   1.262       .  A
N1198      O1201   1.260       .  A
C1203      C1204   1.419       .  A
C1203      C1208   1.427       .  A
C1203      H1210   1.083       .  S
C1204      C1205   1.413       .  A
C1205      C1206   1.407       .  A
C1205      N1212   1.423       .  S
C1206      C1207   1.410       .  A
C1206      H1211   1.084       .  S
C1207      C1208   1.417       .  A
C1208      N1209   1.427       .  S
N1209      O1213   1.261       .  A
N1209      O1214   1.262       .  A
N1212      O1216   1.258       .  A
N1212      O1215   1.262       .  A
C1217      C1218   1.401       .  A
C1217      C1222   1.405       .  A
C1217      H1224   1.083       .  S
C1218      C1219   1.411       .  A
C1219      C1220   1.405       .  A
C1219      N1226   1.436       .  S
C1220      C1221   1.404       .  A
C1220      H1225   1.084       .  S
C1221      C1222   1.416       .  A
C1222      N1223   1.435       .  S
N1223      O1227   1.263       .  A
N1223      O1228   1.262       .  A
N1226      O1230   1.263       .  A
N1226      O1229   1.262       .  A
C1231      C1232   1.417       .  A
C1231      C1236   1.423       .  A
C1231      H1238   1.083   1_455  S
C1232      C1233   1.421       .  A
C1233      C1234   1.413       .  A
C1233      N1240   1.429       .  S
C1234      C1235   1.410       .  A
C1234      H1239   1.084       .  S
C1235      C1236   1.416       .  A
C1236      N1237   1.427   1_455  S
N1237      O1241   1.262       .  A
N1237      O1242   1.262       .  A
N1240      O1244   1.261       .  A
N1240      O1243   1.262       .  A
C1245      C1246   1.398       .  A
C1245      C1250   1.392       .  A
C1245      H1252   1.084       .  S
C1246      C1247   1.409       .  A
C1247      C1248   1.392       .  A
C1247      N1254   1.424       .  S
C1248      C1249   1.394       .  A
C1248      H1253   1.082       .  S
C1249      C1250   1.423       .  A
C1250      N1251   1.434       .  S
N1251      O1255   1.261       .  A
N1251      O1256   1.259       .  A
N1254      O1258   1.261       .  A
N1254      O1257   1.260       .  A
C1259      C1260   1.408       .  A
C1259      C1264   1.421       .  A
C1259      H1266   1.084       .  S
C1260      C1261   1.419       .  A
C1261      C1262   1.416       .  A
C1261      N1268   1.430       .  S
C1262      C1263   1.412       .  A
C1262      H1267   1.082       .  S
C1263      C1264   1.425       .  A
C1264      N1265   1.427       .  S
N1265      O1269   1.262       .  A
N1265      O1270   1.262       .  A
N1268      O1272   1.262       .  A
N1268      O1271   1.261       .  A
C1273      C1274   1.407       .  A
C1273      C1278   1.424       .  A
C1273      H1280   1.083       .  S
C1274      C1275   1.416       .  A
C1275      C1276   1.411       .  A
C1275      N1282   1.429       .  S
C1276      C1277   1.410       .  A
C1276      H1281   1.084       .  S
C1277      C1278   1.426       .  A
C1278      N1279   1.428       .  S
N1279      O1283   1.262       .  A
N1279      O1284   1.262       .  A
N1282      O1286   1.262       .  A
N1282      O1285   1.262       .  A
C1287      C1288   1.411       .  A
C1287      C1292   1.412       .  A
C1287      H1294   1.084       .  S
C1288      C1289   1.421       .  A
C1289      C1290   1.406       .  A
C1289      N1296   1.429       .  S
C1290      C1291   1.405       .  A
C1290      H1295   1.084       .  S
C1291      C1292   1.419       .  A
C1292      N1293   1.429       .  S
N1293      O1297   1.261       .  A
N1293      O1298   1.261       .  A
N1296      O1300   1.262       .  A
N1296      O1299   1.262       .  A
C1301      C1302   1.400       .  A
C1301      C1306   1.409       .  A
C1301      H1308   1.084       .  S
C1302      C1303   1.419       .  A
C1303      C1304   1.402       .  A
C1303      N1310   1.430       .  S
C1304      C1305   1.408       .  A
C1304      H1309   1.080       .  S
C1305      C1306   1.433       .  A
C1306      N1307   1.425       .  S
N1307      O1311   1.261       .  A
N1307      O1312   1.262       .  A
N1310      O1314   1.262       .  A
N1310      O1313   1.262       .  A
C1315      C1316   1.403       .  A
C1315      C1320   1.400       .  A
C1315      H1322   1.083       .  S
C1317      C1318   1.400       .  A
C1317      N1324   1.428       .  S
C1318      C1319   1.403       .  A
C1318      H1323   1.083       .  S
C1320      N1321   1.433       .  S
N1321      O1325   1.263   1_556  A
N1321      O1326   1.260       .  A
N1324      O1328   1.262       .  A
N1324      O1327   1.262       .  A
C1329      C1330   1.403       .  A
C1329      C1334   1.401       .  A
C1329      H1336   1.084       .  S
C1330      C1331   1.409       .  A
C1331      C1332   1.401       .  A
C1331      N1338   1.428       .  S
C1332      C1333   1.402       .  A
C1332      H1337   1.078       .  S
C1333      C1334   1.409       .  A
C1334      N1335   1.430       .  S
N1335      O1339   1.262       .  A
N1335      O1340   1.262       .  A
N1338      O1342   1.261       .  A
N1338      O1341   1.262       .  A
C1343      C1344   1.415   1_655  A
C1343      C1348   1.404   1_655  A
C1343      H1350   1.080       .  S
C1344      C1345   1.426       .  A
C1345      C1346   1.402       .  A
C1345      N1352   1.437       .  S
C1346      C1347   1.401       .  A
C1346      H1351   1.084       .  S
C1347      C1348   1.404       .  A
C1348      N1349   1.428   1_455  S
N1349      O1353   1.261       .  A
N1349      O1354   1.262       .  A
N1352      O1356   1.263       .  A
N1352      O1355   1.261       .  A
C1357      C1358   1.407       .  A
C1357      C1362   1.411       .  A
C1357      H1364   1.082       .  S
C1358      C1359   1.429       .  A
C1359      C1360   1.409       .  A
C1359      N1366   1.426       .  S
C1360      C1361   1.400       .  A
C1360      H1365   1.083       .  S
C1361      C1362   1.421       .  A
C1362      N1363   1.429       .  S
N1363      O1367   1.262       .  A
N1363      O1368   1.262       .  A
N1366      O1370   1.262       .  A
N1366      O1369   1.261       .  A
C1371      C1372   1.420       .  A
C1371      C1376   1.426       .  A
C1371      H1378   1.083       .  S
C1372      C1373   1.414       .  A
C1373      C1374   1.411       .  A
C1373      N1380   1.424   1_455  S
C1374      C1375   1.413       .  A
C1374      H1379   1.084       .  S
C1375      C1376   1.415       .  A
C1376      N1377   1.427       .  S
N1377      O1381   1.262       .  A
N1377      O1382   1.261       .  A
N1380      O1384   1.261       .  A
N1380      O1383   1.258       .  A
C1385      C1386   1.414       .  A
C1385      C1390   1.411       .  A
C1385      H1392   1.083       .  S
C1386      C1387   1.415       .  A
C1387      C1388   1.425       .  A
C1387      N1394   1.429       .  S
C1388      C1389   1.422       .  A
C1388      H1393   1.083       .  S
C1389      C1390   1.416       .  A
C1390      N1391   1.427       .  S
N1391      O1395   1.262       .  A
N1391      O1396   1.262       .  A
N1394      O1398   1.262       .  A
N1394      O1397   1.262       .  A
C1399      C1400   1.400       .  A
C1399      C1404   1.410       .  A
C1399      H1406   1.084       .  S
C1400      C1401   1.424       .  A
C1401      C1402   1.404       .  A
C1401      N1408   1.430       .  S
C1402      C1403   1.400       .  A
C1402      H1407   1.084       .  S
C1403      C1404   1.428       .  A
C1404      N1405   1.429       .  S
N1405      O1409   1.262       .  A
N1405      O1410   1.262       .  A
N1408      O1412   1.262       .  A
N1408      O1411   1.262       .  A
C1413      C1414   1.410       .  A
C1413      C1418   1.399       .  A
C1413      H1420   1.083   1_455  S
C1414      C1415   1.427       .  A
C1415      C1416   1.385       .  A
C1415      N1422   1.442       .  S
C1416      C1417   1.390       .  A
C1416      H1421   1.085       .  S
C1417      C1418   1.403       .  A
C1418      N1419   1.425       .  S
N1419      O1423   1.261   1_455  A
N1419      O1424   1.262       .  A
N1422      O1426   1.263       .  A
N1422      O1425   1.262   1_455  A
C1427      C1428   1.398       .  A
C1427      C1432   1.396       .  A
C1427      H1434   1.085       .  S
C1428      C1429   1.400       .  A
C1429      C1430   1.410       .  A
C1429      N1436   1.428       .  S
C1430      C1431   1.424       .  A
C1430      H1435   1.078       .  S
C1431      C1432   1.426       .  A
C1432      N1433   1.425       .  S
N1433      O1437   1.262       .  A
N1433      O1438   1.262       .  A
N1436      O1440   1.262       .  A
N1436      O1439   1.259       .  A
