geometry optimzed in LAMMPS
_audit_creation_date              2020-11-30 
_audit_creation_method            'lammps2cif' 
_symmetry_space_group_name_H-M    'P1' 
_symmetry_Int_Tables_number       1 
_symmetry_cell_setting            triclinic 
loop_ 
_symmetry_equiv_pos_as_xyz 
  x,y,z 
_cell_length_a                    39.114838081854224 
_cell_length_b                    38.808195691065926 
_cell_length_c                    27.025081001795755 
_cell_angle_alpha                 90.05177197827513 
_cell_angle_beta                  89.63324318995271 
_cell_angle_gamma                 120.05541855605344 
loop_ 
_atom_site_label 
_atom_site_type_symbol 
_atom_site_fract_x 
_atom_site_fract_y 
_atom_site_fract_z 
_atom_site_charge 
C1          C  0.20890763  0.38743025  0.54127470     0.03440
C2          C  0.22583952  0.42912051  0.54115058    -0.12710
C3          C  0.21608771  0.44824800  0.50482090     0.00940
C4          C  0.18762462  0.42573506  0.46962250    -0.11240
C5          C  0.16887209  0.38412764  0.47048919     0.03430
C6          C  0.18099021  0.36514307  0.50467046    -0.10760
H7          H  0.24787603  0.44706609  0.56836964     0.09030
H8          H  0.18027605  0.44065393  0.44128257     0.06550
H9          H  0.16890349  0.33338309  0.50216008     0.06400
C10         C  0.39464626  0.21874588  0.97028441     0.03440
C11         C  0.37451277  0.19004349  0.00723205    -0.12710
C12         C  0.39531899  0.17930890  0.04034833     0.00940
C13         C  0.43662294  0.19731403  0.03505143    -0.11240
C14         C  0.45711425  0.22721071  0.99953970     0.03430
C15         C  0.43590749  0.23723566  0.96666096    -0.10660
H16         H  0.34266703  0.17610221  0.01009986     0.09030
H17         H  0.45300095  0.18818002  0.05842587     0.06550
H18         H  0.45154793  0.25970831  0.93849385     0.06400
C19         C  0.21416763  0.39287272  0.96561287     0.03440
C20         C  0.23975072  0.43347682  0.97585852    -0.12710
C21         C  0.23505394  0.45103831  0.01905837     0.00940
C22         C  0.20526847  0.42669560  0.05286245    -0.11240
C23         C  0.17767703  0.38695110  0.04176639     0.03430
C24         C  0.18186072  0.37052442  0.99748032    -0.10660
H25         H  0.26323723  0.45133518  0.95005591     0.09030
H26         H  0.20222154  0.43923190  0.08733213     0.06550
H27         H  0.16001027  0.34054464  0.98729592     0.06400
C28         C  0.78298381  0.17857782  0.54171733     0.03440
C29         C  0.75799907  0.19331312  0.52751350    -0.12710
C30         C  0.76955284  0.22258018  0.49059534     0.00940
C31         C  0.80312621  0.23264118  0.46181302    -0.11240
C32         C  0.82678568  0.21598180  0.47239633     0.03430
C33         C  0.81789242  0.19088349  0.51352829    -0.10660
H34         H  0.73008313  0.18333389  0.54605727     0.09030
H35         H  0.81106401  0.25369860  0.43159534     0.06550
H36         H  0.83848097  0.18101541  0.52266833     0.06400
C37         C  0.82344784  0.20788950  0.03621795     0.03440
C38         C  0.80623142  0.23224396  0.03269127    -0.12710
C39         C  0.77469671  0.22263447  0.00087488     0.00940
C40         C  0.76309831  0.19143787  0.96734095    -0.11240
C41         C  0.78104600  0.16802152  0.96796938     0.03430
C42         C  0.80940297  0.17476133  0.00426166    -0.10660
H43         H  0.81616404  0.25809122  0.05624255     0.09030
H44         H  0.73965840  0.18495034  0.94130980     0.06550
H45         H  0.81916914  0.15346470  0.00796454     0.06400
C46         C  0.69172221  0.31109945  0.01130276     0.03440
C47         C  0.71012510  0.35239380  0.01801774    -0.12710
C48         C  0.68973336  0.37287934  0.00865799     0.00940
C49         C  0.64978558  0.35094570  0.99523647    -0.11240
C50         C  0.62896658  0.30903177  0.99671544     0.03430
C51         C  0.65047587  0.28939235  0.00475787    -0.10660
H52         H  0.74057403  0.36872364  0.02960895     0.09030
H53         H  0.63439219  0.36657329  0.98532982     0.06550
H54         H  0.63538883  0.25729893  0.00536504     0.06400
C55         C  0.80849843  0.60744253  0.94688529     0.03440
C56         C  0.79099329  0.56585336  0.95207413    -0.12710
C57         C  0.76831264  0.54585725  0.99416503     0.00940
C58         C  0.76146622  0.56822849  0.02975957    -0.11240
C59         C  0.77629324  0.60918811  0.02354537     0.03430
C60         C  0.80025383  0.62863436  0.98263826    -0.10660
H61         H  0.79638869  0.54931594  0.92415684     0.09030
H62         H  0.74497378  0.55403975  0.06317584     0.06550
H63         H  0.81409390  0.66065235  0.97995682     0.06400
O64         O  0.03563153  0.33525746  0.20600951    -0.74120
O65         O  0.95796654  0.29061690  0.30844025    -0.74150
O66         O  0.03712349  0.33147430  0.30558732    -0.74200
O67         O  0.95570239  0.29412571  0.20872279    -0.74250
O68         O  0.95691695  0.23750431  0.20243901    -0.74180
O69         O  0.03808251  0.27465687  0.30085144    -0.74160
O70         O  0.95795063  0.23326936  0.30290591    -0.74140
O71         O  0.03721906  0.27906734  0.20042913    -0.74200
Ni72       Ni  0.99657661  0.31482021  0.25725432     1.25410
Ni73       Ni  0.99756743  0.25402626  0.25135917     1.25360
C74         C  0.04967902  0.31502429  0.18624121     0.88060
C75         C  0.94540031  0.25485164  0.32295433     0.87990
C76         C  0.05064131  0.30916022  0.31982151     0.88020
C77         C  0.94261812  0.25956741  0.18984698     0.88190
C78         C  0.17566649  0.77728049  0.53291971     0.03440
C79         C  0.20292696  0.76376510  0.53601467    -0.12710
C80         C  0.23204265  0.77402400  0.49961857     0.00940
C81         C  0.23753564  0.80192246  0.46339678    -0.11240
C82         C  0.21405006  0.81972965  0.46328712     0.03430
C83         C  0.18181589  0.80576791  0.49610331    -0.10660
H84         H  0.20067596  0.74386845  0.56534633     0.09030
H85         H  0.26059305  0.81030095  0.43574298     0.06550
H86         H  0.16215529  0.81773533  0.49324511     0.06400
C87         C  0.37255389  0.68121480  0.48018152     0.03440
C88         C  0.35096789  0.63975957  0.48601909    -0.12710
C89         C  0.30957046  0.61936848  0.48675927     0.00940
C90         C  0.29001480  0.64141426  0.48592794    -0.11240
C91         C  0.31129182  0.68304193  0.48146610     0.03430
C92         C  0.35263932  0.70267886  0.47846977    -0.10660
H93         H  0.36659840  0.62366222  0.49112066     0.09030
H94         H  0.25821223  0.62613825  0.48956473     0.06550
H95         H  0.36943663  0.73488344  0.47667755     0.06400
C96         C  0.60093118  0.81434044  0.53702423     0.03440
C97         C  0.56000855  0.79544383  0.52837664    -0.12710
C98         C  0.54226632  0.76514482  0.49306152     0.00940
C99         C  0.56577617  0.75627777  0.46274262    -0.11240
C100        C  0.60654603  0.77504256  0.47012618     0.03430
C101        C  0.62406769  0.80380237  0.50737507    -0.10660
H102        H  0.54171869  0.80401539  0.54898634     0.09030
H103        H  0.55218352  0.73419935  0.43382180     0.06550
H104        H  0.65564606  0.81790836  0.51304975     0.06400
C105        C  0.38781466  0.21215484  0.53544611     0.03440
C106        C  0.42912334  0.23314797  0.53206442    -0.12710
C107        C  0.44844946  0.22446695  0.49460408     0.00940
C108        C  0.42623284  0.19460887  0.46024483    -0.11240
C109        C  0.38473772  0.17366689  0.46274737     0.03430
C110        C  0.36562682  0.18228932  0.50087332    -0.10660
H111        H  0.44626079  0.25639143  0.55858197     0.09030
H112        H  0.44125372  0.18728572  0.43186438     0.06550
H113        H  0.33375453  0.16561437  0.50409436     0.06400
C114        C  0.61918434  0.30706092  0.49162983     0.03440
C115        C  0.63927946  0.28558041  0.48783013    -0.12710
C116        C  0.68058533  0.30542590  0.48185097     0.00940
C117        C  0.70154181  0.34739393  0.48093776    -0.11240
C118        C  0.68194315  0.36914552  0.48525546     0.03430
C119        C  0.64078111  0.34879963  0.49037085    -0.10660
H120        H  0.62268539  0.25352224  0.49046701     0.09030
H121        H  0.73344885  0.36335707  0.47843492     0.06550
H122        H  0.62554689  0.36556035  0.49406918     0.06400
C123        C  0.78332211  0.60435118  0.46857694     0.03440
C124        C  0.75959812  0.56283572  0.47108569    -0.12710
C125        C  0.76841574  0.54067012  0.50421306     0.00940
C126        C  0.80050852  0.56058300  0.53632333    -0.11240
C127        C  0.82345083  0.60229709  0.53547012     0.03430
C128        C  0.81463452  0.62409017  0.50169353    -0.10660
H129        H  0.73470497  0.54758757  0.44637588     0.09030
H130        H  0.80799293  0.54371702  0.56148363     0.06550
H131        H  0.83266795  0.65626210  0.50044722     0.06400
C132        C  0.17990914  0.78772088  0.95221781     0.03440
C133        C  0.19984010  0.76615732  0.95409573    -0.12710
C134        C  0.22488297  0.77088250  0.99382911     0.00940
C135        C  0.22724044  0.79579377  0.03313310    -0.11240
C136        C  0.21034180  0.82031721  0.02965180     0.03430
C137        C  0.18681437  0.81620694  0.98863349    -0.10660
H138        H  0.19534871  0.74547374  0.92457079     0.09030
H139        H  0.24368197  0.79755853  0.06589184     0.06550
H140        H  0.17398450  0.83503949  0.98450396     0.06400
C141        C  0.31156886  0.68421282  0.00220220     0.03440
C142        C  0.29227623  0.64320082  0.01367959    -0.12710
C143        C  0.31371754  0.62427543  0.02721512     0.00940
C144        C  0.35497708  0.64784245  0.03161181    -0.11240
C145        C  0.37475603  0.68807553  0.01829815     0.03430
C146        C  0.35317401  0.70558154  0.00186349    -0.10660
H147        H  0.26059286  0.62601270  0.01193369     0.09030
H148        H  0.37223967  0.63476098  0.04406255     0.06550
H149        H  0.36904221  0.73623017  0.98935150     0.06400
C150        C  0.60641374  0.81893831  0.97050921     0.03440
C151        C  0.56539523  0.80163072  0.97704132    -0.12710
C152        C  0.54515358  0.77127786  0.01172730     0.00940
C153        C  0.56635160  0.76030286  0.04322585    -0.11240
C154        C  0.60717067  0.77611813  0.03637163     0.03430
C155        C  0.62682909  0.80479888  0.99899686    -0.10660
H156        H  0.54888803  0.81099316  0.95404315     0.09030
H157        H  0.55086432  0.73923194  0.07269388     0.06550
H158        H  0.65773496  0.81542504  0.99175317     0.06400
O159        O  0.70763324  0.95468580  0.69777077    -0.74120
O160        O  0.74568797  0.03157075  0.80332868    -0.74150
O161        O  0.70567987  0.95103296  0.79873283    -0.74200
O162        O  0.74891487  0.03557724  0.70340887    -0.74250
O163        O  0.69265027  0.03670243  0.70330148    -0.74180
O164        O  0.64863762  0.95099044  0.79816740    -0.74160
O165        O  0.68858251  0.03133491  0.80326698    -0.74140
O166        O  0.65114888  0.95568104  0.69790684    -0.74200
Ni167      Ni  0.72896716  0.99312542  0.75072310     1.25410
Ni168      Ni  0.66824084  0.99367643  0.75051817     1.25360
C169        C  0.67288491  0.94243897  0.68062953     0.88060
C170        C  0.72307634  0.04383438  0.82078945     0.87990
C171        C  0.67026671  0.93732198  0.81447769     0.88020
C172        C  0.72838267  0.05062537  0.68803185     0.88190
O173        O  0.76041956  0.71557218  0.20259190    -0.74120
O174        O  0.71921768  0.75551036  0.30297632    -0.74150
O175        O  0.76068998  0.71660385  0.30381565    -0.74200
O176        O  0.71969349  0.75476265  0.20198551    -0.74250
O177        O  0.66329038  0.69708380  0.20345219    -0.74180
O178        O  0.70427050  0.65838333  0.30420561    -0.74160
O179        O  0.66313197  0.69726580  0.30396677    -0.74140
O180        O  0.70354055  0.65774595  0.20355816    -0.74200
Ni181      Ni  0.74206230  0.73771088  0.25290282     1.25410
Ni182      Ni  0.68159196  0.67560154  0.25391334     1.25360
C183        C  0.73816425  0.68033089  0.18588324     0.88060
C184        C  0.68433060  0.73278766  0.32018881     0.87990
C185        C  0.73908044  0.68129172  0.32089479     0.88020
C186        C  0.68495857  0.73203728  0.18512167     0.88190
O187        O  0.28138530  0.03764668  0.19853327    -0.74120
O188        O  0.23931241  0.95462119  0.29635069    -0.74150
O189        O  0.27949805  0.03566569  0.29941587    -0.74200
O190        O  0.24200809  0.95673876  0.19567148    -0.74250
O191        O  0.29919671  0.95767863  0.19773677    -0.74180
O192        O  0.33630044  0.03552507  0.29971981    -0.74160
O193        O  0.29652103  0.95528155  0.29737739    -0.74140
O194        O  0.33867887  0.03823644  0.20000326    -0.74200
Ni195      Ni  0.25843241  0.99615649  0.24744643     1.25410
Ni196      Ni  0.31960688  0.99667653  0.24868291     1.25360
C197        C  0.31695996  0.05157063  0.18324182     0.88060
C198        C  0.26098679  0.94124976  0.31307799     0.87990
C199        C  0.31420375  0.04821244  0.31704711     0.88020
C200        C  0.26487818  0.94434554  0.17934562     0.88190
O201        O  0.95725608  0.65652760  0.69971871    -0.74120
O202        O  0.03540719  0.69557227  0.80114864    -0.74150
O203        O  0.95507950  0.65819230  0.79948102    -0.74200
O204        O  0.03692067  0.69425030  0.70102645    -0.74250
O205        O  0.03927022  0.75251062  0.69830610    -0.74180
O206        O  0.95761606  0.71687460  0.79651652    -0.74160
O207        O  0.03832905  0.75446934  0.79833098    -0.74140
O208        O  0.95933082  0.71494856  0.69689310    -0.74200
Ni209      Ni  0.99609471  0.67407149  0.75058540     1.25410
Ni210      Ni  0.99878795  0.73683045  0.74755413     1.25360
C211        C  0.94522551  0.67908069  0.68180875     0.88060
C212        C  0.05011419  0.73154722  0.81592505     0.87990
C213        C  0.94252776  0.68145339  0.81367139     0.88020
C214        C  0.05143110  0.72937572  0.68274588     0.88190
O215        O  0.30668558  0.34530989  0.70552654    -0.74120
O216        O  0.34481206  0.30340394  0.80520197    -0.74150
O217        O  0.34600059  0.30441471  0.70449146    -0.74200
O218        O  0.30464965  0.34382994  0.80508832    -0.74250
O219        O  0.24785358  0.28610072  0.80417607    -0.74180
O220        O  0.28879629  0.24715588  0.70298414    -0.74160
O221        O  0.28806191  0.24557942  0.80343159    -0.74140
O222        O  0.24951771  0.28851726  0.70400359    -0.74200
Ni223      Ni  0.32759918  0.32618726  0.75518099     1.25410
Ni224      Ni  0.26652367  0.26475087  0.75364254     1.25360
C225        C  0.27182154  0.32434577  0.68844432     0.88060
C226        C  0.32294005  0.26764056  0.82056018     0.87990
C227        C  0.32393989  0.26955392  0.68656265     0.88020
C228        C  0.26917945  0.32148555  0.82071827     0.88190
C229        C  0.60958972  0.83950765  0.88348962    -0.05470
C230        C  0.62627337  0.84935132  0.93085694     0.00460
C231        C  0.65837992  0.88833810  0.93954339    -0.08120
C232        C  0.67273111  0.91570829  0.89987821    -0.05490
C233        C  0.65476400  0.90613616  0.85327598     0.00440
C234        C  0.62292919  0.86737687  0.84473350    -0.08020
C235        C  0.60439918  0.85497159  0.79424486     0.62350
H236        H  0.58541765  0.80958274  0.87728464     0.13050
H237        H  0.69783447  0.94522121  0.90522038     0.13060
C238        C  0.67659689  0.90191705  0.99040622     0.62590
F239        F  0.57463959  0.81549499  0.79347314    -0.22580
F240        F  0.63325954  0.85986788  0.76058637    -0.19910
F241        F  0.58820212  0.87802558  0.78050418    -0.19590
F242        F  0.69926252  0.88490617  0.00178852    -0.19640
F243        F  0.64731863  0.89126073  0.02586863    -0.19960
F244        F  0.70085129  0.94285414  0.99237233    -0.22630
C245        C  0.66314883  0.79418880  0.09345695    -0.05470
C246        C  0.62957510  0.76411021  0.06978430     0.00460
C247        C  0.61815954  0.72380970  0.07899216    -0.08120
C248        C  0.63687825  0.71512322  0.11717851    -0.05490
C249        C  0.66903601  0.74513659  0.14341885     0.00440
C250        C  0.68441963  0.78550544  0.12840858    -0.08020
C251        C  0.72322233  0.81944106  0.14753682     0.62350
H252        H  0.67251813  0.82484454  0.08438742     0.13050
H253        H  0.62652822  0.68422994  0.12614007     0.13060
C254        C  0.58809233  0.68988591  0.04728984     0.62590
F255        F  0.73246236  0.85559928  0.12635988    -0.22580
F256        F  0.75357298  0.81220676  0.13606301    -0.19910
F257        F  0.72127939  0.82317652  0.19806130    -0.19590
F258        F  0.59224940  0.70157050  0.99824569    -0.19640
F259        F  0.55021701  0.67802435  0.06347768    -0.19960
F260        F  0.59343410  0.65724093  0.04958426    -0.22630
C261        C  0.48249123  0.76038968  0.04914525    -0.05470
C262        C  0.50152579  0.74972171  0.01328067     0.00460
C263        C  0.47893127  0.71877072  0.97941417    -0.08120
C264        C  0.43758108  0.69975407  0.98219443    -0.05490
C265        C  0.41844629  0.71068680  0.01755528     0.00440
C266        C  0.44098048  0.74120873  0.05199513    -0.08020
C267        C  0.42132150  0.75286297  0.09202153     0.62350
H268        H  0.50049985  0.78402285  0.07472380     0.13050
H269        H  0.41964706  0.67601135  0.95668789     0.13060
C270        C  0.49842060  0.70544613  0.94107277     0.62590
F271        F  0.44859253  0.78012583  0.12468926    -0.22580
F272        F  0.39500187  0.71952898  0.11874800    -0.19910
F273        F  0.40128553  0.76992120  0.07082001    -0.19590
F274        F  0.52206768  0.69349274  0.96444160    -0.19640
F275        F  0.52126332  0.73644770  0.90906674    -0.19960
F276        F  0.47092306  0.67377965  0.91324930    -0.22630
C277        C  0.21054066  0.88848005  0.13271793    -0.05470
C278        C  0.25144648  0.91387994  0.13919479     0.00460
C279        C  0.27819370  0.90917648  0.10765807    -0.08120
C280        C  0.26275140  0.87935263  0.07140020    -0.05490
C281        C  0.22211969  0.85321898  0.06605020     0.00440
C282        C  0.19526730  0.85780404  0.09706547    -0.08020
C283        C  0.15088274  0.83009608  0.09389423     0.62350
H284        H  0.19038890  0.89230675  0.15664346     0.13050
H285        H  0.28264353  0.87546097  0.04714244     0.13060
C286        C  0.32294898  0.93477948  0.11166726     0.62590
F287        F  0.13126683  0.83479049  0.13385394    -0.22580
F288        F  0.14208666  0.79085741  0.09332485    -0.19910
F289        F  0.13658775  0.83811892  0.05147628    -0.19590
F290        F  0.33540499  0.92647349  0.15556276    -0.19640
F291        F  0.33422301  0.97469617  0.10974667    -0.19960
F292        F  0.34236807  0.92760181  0.07353466    -0.22630
C293        C  0.10911677  0.75165719  0.93432981    -0.05470
C294        C  0.14755338  0.77617420  0.91649928     0.00460
C295        C  0.15389529  0.78691683  0.86591230    -0.08120
C296        C  0.12083803  0.77271719  0.83466823    -0.05490
C297        C  0.08231710  0.74712982  0.85233364     0.00440
C298        C  0.07631189  0.73601164  0.90301613    -0.08020
C299        C  0.03662092  0.70826818  0.92683780     0.62350
H300        H  0.10479723  0.74354734  0.97323690     0.13050
H301        H  0.12489931  0.78051227  0.79573342     0.13060
C302        C  0.19524817  0.81302548  0.84530977     0.62590
F303        F  0.03824386  0.67736218  0.95003164    -0.22580
F304        F  0.00584358  0.69184509  0.89374076    -0.19910
F305        F  0.02870046  0.72923270  0.96207157    -0.19590
F306        F  0.21681843  0.79386554  0.84998376    -0.19640
F307        F  0.21390132  0.84852665  0.87104632    -0.19960
F308        F  0.19476593  0.82164401  0.79570533    -0.22630
C309        C  0.23090794  0.71072984  0.97549655    -0.05470
C310        C  0.24831639  0.74984270  0.99409105     0.00460
C311        C  0.28810161  0.76814431  0.01051496    -0.08120
C312        C  0.30593310  0.74470796  0.01511762    -0.05490
C313        C  0.28927360  0.70613725  0.99507741     0.00440
C314        C  0.25203116  0.69020866  0.97129445    -0.08020
C315        C  0.23435695  0.65370041  0.93827048     0.62350
H316        H  0.20094479  0.69645718  0.96178096     0.13050
H317        H  0.33407032  0.75756513  0.03370787     0.13060
C318        C  0.31393404  0.81253014  0.02027945     0.62590
F319        F  0.21853653  0.66084082  0.89645253    -0.22580
F320        F  0.20440718  0.62167815  0.96342637    -0.19910
F321        F  0.26222836  0.64421737  0.92208950    -0.19590
F322        F  0.31220249  0.82043045  0.06983365    -0.19640
F323        F  0.30279213  0.83463686  0.99149747    -0.19960
F324        F  0.35295245  0.82511900  0.00833509    -0.22630
C325        C  0.85069790  0.64484166  0.60907237    -0.05470
C326        C  0.85600465  0.62341480  0.57093817     0.00460
C327        C  0.89190379  0.62306454  0.56700863    -0.08120
C328        C  0.92057836  0.64233310  0.60371433    -0.05490
C329        C  0.91492729  0.66290454  0.64274914     0.00440
C330        C  0.87981255  0.66504785  0.64510370    -0.08020
C331        C  0.87250943  0.68748336  0.68601010     0.62350
H332        H  0.82322854  0.64526936  0.61051816     0.13050
H333        H  0.94782724  0.64146947  0.60227330     0.13060
C334        C  0.90027605  0.60338057  0.52366160     0.62590
F335        F  0.83504249  0.68274003  0.68350934    -0.22580
F336        F  0.89957567  0.72769121  0.68213073    -0.19910
F337        F  0.87620234  0.67369581  0.73162574    -0.19590
F338        F  0.89492104  0.61823480  0.47969109    -0.19640
F339        F  0.87509181  0.56268317  0.52521175    -0.19960
F340        F  0.93866482  0.61046852  0.52424522    -0.22630
C341        C  0.76311249  0.65332655  0.44543325    -0.05470
C342        C  0.77581102  0.62691754  0.43039097     0.00460
C343        C  0.78104292  0.62239226  0.37940735    -0.08120
C344        C  0.76971899  0.64174650  0.34501139    -0.05490
C345        C  0.75457162  0.66603285  0.35966549     0.00440
C346        C  0.75265436  0.67336378  0.41058973    -0.08020
C347        C  0.73840619  0.70114815  0.42771301     0.62350
H348        H  0.76040442  0.65721942  0.48468671     0.13050
H349        H  0.77205758  0.63741646  0.30624315     0.13060
C350        C  0.79896153  0.59776502  0.36119293     0.62590
F351        F  0.73994164  0.70534369  0.47866072    -0.22580
F352        F  0.69981598  0.68605185  0.41316613    -0.19910
F353        F  0.76161252  0.73839751  0.40682347    -0.19590
F354        F  0.77250869  0.55772240  0.36796479    -0.19640
F355        F  0.83326252  0.60806988  0.38682434    -0.19960
F356        F  0.80847895  0.60399165  0.31134071    -0.22630
C357        C  0.70136013  0.43050563  0.53308843    -0.05470
C358        C  0.70457174  0.41319065  0.48890322     0.00460
C359        C  0.72784403  0.43795702  0.44935410    -0.08120
C360        C  0.74895061  0.47936974  0.45666440    -0.05490
C361        C  0.74630774  0.49663695  0.50114265     0.00440
C362        C  0.72134010  0.47203903  0.53966738    -0.08020
C363        C  0.71447399  0.48947295  0.58649194     0.62350
H364        H  0.68277868  0.41103196  0.56247266     0.13050
H365        H  0.76768755  0.49883269  0.42738920     0.13060
C366        C  0.72909251  0.42113239  0.39899411     0.62590
F367        F  0.68514770  0.46041135  0.61598389    -0.22580
F368        F  0.70297855  0.51677171  0.57425103    -0.19910
F369        F  0.74867224  0.50815876  0.61397202    -0.19590
F370        F  0.69106527  0.39563330  0.38291510    -0.19640
F371        F  0.74947183  0.40067458  0.40178450    -0.19960
F372        F  0.74772374  0.45088863  0.36383457    -0.22630
C373        C  0.36949297  0.26030162  0.56593842    -0.05470
C374        C  0.36839584  0.22409388  0.57325938     0.00460
C375        C  0.35186498  0.20215409  0.61729350    -0.08120
C376        C  0.33650019  0.21743419  0.65283405    -0.05490
C377        C  0.33912084  0.25461144  0.64650104     0.00440
C378        C  0.35522774  0.27611021  0.60192265    -0.08020
C379        C  0.35661420  0.31512168  0.59180505     0.62350
H380        H  0.38249419  0.27653668  0.53193241     0.13050
H381        H  0.32315128  0.20086299  0.68644655     0.13060
C382        C  0.35184725  0.16368217  0.62728654     0.62590
F383        F  0.36883073  0.32849029  0.54391187    -0.22580
F384        F  0.38291895  0.34382320  0.62381132    -0.19910
F385        F  0.31930533  0.31015525  0.59833570    -0.19590
F386        F  0.39010208  0.17053390  0.62498311    -0.19640
F387        F  0.32920007  0.13551087  0.59236410    -0.19960
F388        F  0.33653958  0.14830950  0.67363047    -0.22630
C389        C  0.36963316  0.10849183  0.43046719    -0.05470
C390        C  0.36239267  0.14026326  0.42803912     0.00460
C391        C  0.33745582  0.14085611  0.39062031    -0.08120
C392        C  0.32102317  0.10937727  0.35615519    -0.05490
C393        C  0.32966736  0.07831948  0.35732561     0.00440
C394        C  0.35401377  0.07755474  0.39574104    -0.08020
C395        C  0.36330310  0.04415612  0.40108727     0.62350
H396        H  0.38885883  0.10882895  0.45938842     0.13050
H397        H  0.30236708  0.10953947  0.32683014     0.13060
C398        C  0.32958089  0.17524207  0.38576251     0.62590
F399        F  0.38129909  0.04591043  0.44572558    -0.22580
F400        F  0.38861640  0.04644730  0.36363778    -0.19910
F401        F  0.32868953  0.00799651  0.39917156    -0.19590
F402        F  0.36496618  0.21083513  0.38295714    -0.19640
F403        F  0.30821491  0.17603007  0.42620270    -0.19960
F404        F  0.30811662  0.17193494  0.34370933    -0.22630
C405        C  0.51182916  0.23617212  0.52849403    -0.05470
C406        C  0.49206275  0.24579484  0.49286958     0.00460
C407        C  0.51393408  0.27673066  0.45855058    -0.08120
C408        C  0.55538735  0.29589988  0.45961609    -0.05490
C409        C  0.57540491  0.28621632  0.49510511     0.00440
C410        C  0.55325730  0.25685396  0.53149365    -0.08020
C411        C  0.57162146  0.24695498  0.57461058     0.62350
H412        H  0.49451456  0.21290887  0.55518007     0.13050
H413        H  0.57262073  0.31861269  0.43236888     0.13060
C414        C  0.49352038  0.28990769  0.42179690     0.62590
F415        F  0.54935207  0.24098101  0.61711073    -0.22580
F416        F  0.60955027  0.27713325  0.58467443    -0.19910
F417        F  0.57224908  0.21238765  0.56422118    -0.19590
F418        F  0.46932374  0.30063218  0.44687059    -0.19640
F419        F  0.47096139  0.25918016  0.38964575    -0.19960
F420        F  0.52035624  0.32233793  0.39403589    -0.22630
C421        C  0.65488730  0.88121726  0.56277870    -0.05470
C422        C  0.61978685  0.84609307  0.57541867     0.00460
C423        C  0.60324870  0.84303916  0.62334965    -0.08120
C424        C  0.62004045  0.87648997  0.65425571    -0.05490
C425        C  0.65597196  0.91057459  0.64273536     0.00440
C426        C  0.67394251  0.91303397  0.59625830    -0.08020
C427        C  0.71196481  0.94976093  0.58123527     0.62350
H428        H  0.66726230  0.88372987  0.52613300     0.13050
H429        H  0.60564765  0.87536529  0.68895547     0.13060
C430        C  0.56989397  0.80463174  0.64469925     0.62590
F431        F  0.72299602  0.94753981  0.53307860    -0.22580
F432        F  0.74192746  0.95416472  0.61209488    -0.19910
F433        F  0.70705670  0.98258158  0.58471973    -0.19590
F434        F  0.56973102  0.77192538  0.62443428    -0.19640
F435        F  0.53411205  0.80270238  0.63671377    -0.19960
F436        F  0.57446192  0.80278072  0.69510111    -0.22630
C437        C  0.65402944  0.79413802  0.40097582    -0.05470
C438        C  0.63061336  0.76566068  0.43654324     0.00460
C439        C  0.62724425  0.72769241  0.43603016    -0.08120
C440        C  0.64512746  0.71840756  0.39713925    -0.05490
C441        C  0.66806754  0.74645822  0.36061667     0.00440
C442        C  0.67296940  0.78525846  0.36272905    -0.08020
C443        C  0.69494363  0.81596275  0.32266361     0.62350
H444        H  0.65591768  0.82294110  0.40230899     0.13050
H445        H  0.64059751  0.68859813  0.39460880     0.13060
C446        C  0.60550183  0.69740182  0.47684363     0.62590
F447        F  0.69249208  0.85004806  0.32928792    -0.22580
F448        F  0.67852202  0.79984617  0.27738625    -0.19910
F449        F  0.73447952  0.82702597  0.32266492    -0.19590
F450        F  0.56538644  0.68327344  0.47418650    -0.19640
F451        F  0.61913307  0.71501538  0.52247244    -0.19960
F452        F  0.61140961  0.66515623  0.47342130    -0.22630
C453        C  0.43389815  0.69796196  0.52365463    -0.05470
C454        C  0.41613798  0.70231710  0.48114943     0.00460
C455        C  0.43996213  0.72473719  0.44047137    -0.08120
C456        C  0.48126720  0.74513306  0.44585551    -0.05490
C457        C  0.49889656  0.74145204  0.48904160     0.00440
C458        C  0.47490242  0.71526510  0.52715230    -0.08020
C459        C  0.49057220  0.70297721  0.57087158     0.62350
H460        H  0.41533778  0.67949917  0.55381376     0.13050
H461        H  0.50019368  0.76407311  0.41632471     0.13060
C462        C  0.42210051  0.72571034  0.39110850     0.62590
F463        F  0.46867148  0.66207322  0.57682416    -0.22580
F464        F  0.48684049  0.72073601  0.61331735    -0.19910
F465        F  0.52949022  0.71276157  0.56473119    -0.19590
F466        F  0.40206098  0.74645379  0.39533311    -0.19640
F467        F  0.39621077  0.68725072  0.37581663    -0.19960
F468        F  0.45077238  0.74398390  0.35473605    -0.22630
C469        C  0.27345554  0.91358512  0.38815473    -0.05470
C470        C  0.24607990  0.91043003  0.35260295     0.00460
C471        C  0.20646589  0.87839645  0.35593866    -0.08120
C472        C  0.19651173  0.84982925  0.39383920    -0.05490
C473        C  0.22426779  0.85341467  0.42916319     0.00440
C474        C  0.26267587  0.88725726  0.42811150    -0.08020
C475        C  0.29323691  0.89734745  0.46833714     0.62350
H476        H  0.30370281  0.93768896  0.38560102     0.13050
H477        H  0.16718836  0.82393030  0.39559141     0.13060
C478        C  0.17527471  0.87322066  0.31879953     0.62590
F479        F  0.31094975  0.93746000  0.47957047    -0.22580
F480        F  0.32194057  0.88927873  0.45148604    -0.19910
F481        F  0.27700339  0.87659319  0.51179500    -0.19590
F482        F  0.18862723  0.87344952  0.27120326    -0.19640
F483        F  0.16706369  0.90379940  0.32395132    -0.19960
F484        F  0.14029245  0.83765750  0.32569083    -0.22630
C485        C  0.13201548  0.79121168  0.58662634    -0.05470
C486        C  0.14198583  0.76320818  0.56908184     0.00460
C487        C  0.11998388  0.72337891  0.58716137    -0.08120
C488        C  0.09277339  0.71488557  0.62592119    -0.05490
C489        C  0.08243248  0.74272414  0.64304344     0.00440
C490        C  0.10106200  0.78121696  0.62071560    -0.08020
C491        C  0.08841231  0.81178806  0.63110829     0.62350
H492        H  0.14887501  0.82156050  0.57346568     0.13050
H493        H  0.07809235  0.68515825  0.64156957     0.13060
C494        C  0.12259687  0.68834504  0.56612209     0.62590
F495        F  0.10868005  0.84548854  0.60188016    -0.22580
F496        F  0.09552793  0.82368041  0.68000802    -0.19910
F497        F  0.04864829  0.79550723  0.62083100    -0.19590
F498        F  0.14772077  0.68139178  0.59477604    -0.19640
F499        F  0.13532264  0.69451667  0.51741885    -0.19960
F500        F  0.08573528  0.65427177  0.56689237    -0.22630
C501        C  0.23900184  0.72049551  0.46161234    -0.05470
C502        C  0.25338149  0.75190133  0.49550838     0.00460
C503        C  0.28754257  0.76187053  0.52312789    -0.08120
C504        C  0.30522092  0.73828619  0.51769627    -0.05490
C505        C  0.29091797  0.70658663  0.48374242     0.00440
C506        C  0.25797465  0.69839085  0.45376812    -0.08020
C507        C  0.24230613  0.66725521  0.41304189     0.62350
H508        H  0.21290384  0.71372974  0.44046886     0.13050
H509        H  0.33045914  0.74442732  0.54018672     0.13060
C510        C  0.30555227  0.79769403  0.55715038     0.62590
F511        F  0.22627344  0.67863082  0.37524524    -0.22580
F512        F  0.21297644  0.63139860  0.43205908    -0.19910
F513        F  0.27190221  0.66218904  0.39230300    -0.19590
F514        F  0.27874336  0.79319653  0.59370921    -0.19640
F515        F  0.31550606  0.83167233  0.53005526    -0.19960
F516        F  0.33943592  0.80273723  0.57972215    -0.22630
C517        C  0.87338432  0.63229566  0.83160889    -0.05470
C518        C  0.90827499  0.66587863  0.84763170     0.00460
C519        C  0.90836276  0.68321690  0.89390754    -0.08120
C520        C  0.87474674  0.66358457  0.92429014    -0.05490
C521        C  0.83994531  0.62945218  0.90881691     0.00440
C522        C  0.83838762  0.61558701  0.85981654    -0.08020
C523        C  0.80068842  0.58509824  0.83451517     0.62350
H524        H  0.87289887  0.62008993  0.79531736     0.13050
H525        H  0.87643366  0.67479761  0.96145078     0.13060
C526        C  0.94239666  0.72124999  0.91479383     0.62590
F527        F  0.79863401  0.59907066  0.78815352    -0.22580
F528        F  0.76705137  0.57784068  0.86025114    -0.19910
F529        F  0.80099403  0.54983538  0.82886734    -0.19590
F530        F  0.92993082  0.74853914  0.92208146    -0.19640
F531        F  0.97551352  0.73879485  0.88492406    -0.19960
F532        F  0.95306303  0.71299609  0.96002913    -0.22630
C533        C  0.78116765  0.62841659  0.11107103    -0.05470
C534        C  0.76971498  0.63178904  0.06307305     0.00460
C535        C  0.74932109  0.65300804  0.05524388    -0.08120
C536        C  0.74122801  0.67015407  0.09638079    -0.05490
C537        C  0.75169447  0.66553981  0.14435501     0.00440
C538        C  0.77146513  0.64403187  0.15203377    -0.08020
C539        C  0.77988879  0.63561337  0.20361537     0.62350
H540        H  0.79634998  0.61180448  0.11641056     0.13050
H541        H  0.72557775  0.68637346  0.09166780     0.13060
C542        C  0.73451286  0.65614170  0.00452626     0.62590
F543        F  0.79995580  0.61465747  0.20352594    -0.22580
F544        F  0.74431151  0.61300284  0.22817465    -0.19910
F545        F  0.80264261  0.67117145  0.22818976    -0.19590
F546        F  0.71391223  0.61889276  0.98306184    -0.19640
F547        F  0.76597306  0.68102171  0.97442465    -0.19960
F548        F  0.70940577  0.67157752  0.00736740    -0.22630
C549        C  0.74826619  0.43842335  0.98767138    -0.05470
C550        C  0.71081778  0.41728209  0.01011885     0.00460
C551        C  0.69435539  0.43905668  0.03175612    -0.08120
C552        C  0.71286257  0.48019220  0.02285260    -0.05490
C553        C  0.75077039  0.50172101  0.00105149     0.00440
C554        C  0.77001268  0.48024002  0.98677959    -0.08020
C555        C  0.81345524  0.49924931  0.97270890     0.62350
H556        H  0.76136089  0.42210732  0.97171174     0.13050
H557        H  0.69756503  0.49563287  0.03445833     0.13060
C558        C  0.65866026  0.42078798  0.06618830     0.62590
F559        F  0.82905690  0.47691755  0.99159329    -0.22580
F560        F  0.83566396  0.53717487  0.99178937    -0.19910
F561        F  0.81736382  0.50032391  0.92174514    -0.19590
F562        F  0.65276875  0.38588168  0.08770732    -0.19640
F563        F  0.62529312  0.41344391  0.04037139    -0.19960
F564        F  0.66419732  0.44688452  0.10436112    -0.22630
C565        C  0.84701232  0.23013010  0.12186471    -0.05470
C566        C  0.85348457  0.21666059  0.07611350     0.00460
C567        C  0.88974014  0.21668533  0.06915085    -0.08120
C568        C  0.91667009  0.22874387  0.10865018    -0.05490
C569        C  0.91114642  0.24504508  0.15214652     0.00440
C570        C  0.87634036  0.24724459  0.15822792    -0.08020
C571        C  0.87064053  0.26918432  0.20130976     0.62350
H572        H  0.81925728  0.22932412  0.12794786     0.13050
H573        H  0.94366728  0.22759041  0.10477020     0.13060
C574        C  0.90228491  0.20723233  0.02006839     0.62590
F575        F  0.83316515  0.26455591  0.20204109    -0.22580
F576        F  0.89752386  0.30943679  0.19711788    -0.19910
F577        F  0.87621708  0.25537937  0.24581324    -0.19590
F578        F  0.89492107  0.22638673  0.98214770    -0.19640
F579        F  0.88254856  0.16663335  0.01222503    -0.19960
F580        F  0.94233673  0.22018380  0.01884549    -0.22630
C581        C  0.77389288  0.10893708  0.85238011    -0.05470
C582        C  0.73762830  0.07410893  0.86036312     0.00460
C583        C  0.71599047  0.06973130  0.90456667    -0.08120
C584        C  0.73217328  0.10040647  0.93992776    -0.05490
C585        C  0.76827208  0.13537219  0.93161206     0.00440
C586        C  0.78914280  0.14025164  0.88673953    -0.08020
C587        C  0.82691713  0.17863103  0.87476115     0.62350
H588        H  0.78964577  0.11189018  0.81808625     0.13050
H589        H  0.71621134  0.09793137  0.97387810     0.13060
C590        C  0.67615019  0.03298917  0.91456567     0.62590
F591        F  0.84052096  0.17847010  0.82737883    -0.22580
F592        F  0.85580725  0.18356574  0.90763295    -0.19910
F593        F  0.82060224  0.21058005  0.87830024    -0.19590
F594        F  0.67910405  0.99920401  0.90909663    -0.19640
F595        F  0.64851662  0.03163764  0.88179809    -0.19960
F596        F  0.66263612  0.03285382  0.96208391    -0.22630
C597        C  0.70161982  0.25543006  0.03797797    -0.05470
C598        C  0.71524989  0.29043119  0.00984026     0.00460
C599        C  0.74852760  0.30255934  0.97771566    -0.08120
C600        C  0.76727375  0.27969233  0.97639418    -0.05490
C601        C  0.75316732  0.24476811  0.00403602     0.00440
C602        C  0.71963801  0.23193566  0.03492932    -0.08020
C603        C  0.70274932  0.19321936  0.06384089     0.62350
H604        H  0.67624256  0.24628218  0.06200738     0.13050
H605        H  0.79323765  0.28883031  0.95342020     0.13060
C606        C  0.76451398  0.33880877  0.94395208     0.62590
F607        F  0.67005729  0.18613604  0.09177483    -0.22580
F608        F  0.73097303  0.19451136  0.09554279    -0.19910
F609        F  0.69130718  0.16178564  0.03140830    -0.19590
F610        F  0.78727502  0.37294079  0.97101562    -0.19640
F611        F  0.73402298  0.34097041  0.92133889    -0.19960
F612        F  0.78826888  0.33735172  0.90675681    -0.22630
C613        C  0.85121716  0.19703560  0.39854440    -0.05470
C614        C  0.85957082  0.22317043  0.43849776     0.00460
C615        C  0.89807468  0.25595131  0.44413163    -0.08120
C616        C  0.92578393  0.26440148  0.40605897    -0.05490
C617        C  0.91678175  0.23972207  0.36443681     0.00440
C618        C  0.87979577  0.20410868  0.36186119    -0.08020
C619        C  0.87048396  0.17393348  0.32087828     0.62350
H620        H  0.82189807  0.17120963  0.39615976     0.13050
H621        H  0.95475269  0.29079520  0.40816160     0.13060
C622        C  0.90971833  0.28167784  0.49008934     0.62590
F623        F  0.83214729  0.14236515  0.32437401    -0.22580
F624        F  0.89580517  0.15886967  0.32403385    -0.19910
F625        F  0.87506447  0.19150985  0.27509409    -0.19590
F626        F  0.90342604  0.25826501  0.53148719    -0.19640
F627        F  0.88732283  0.29991446  0.49404900    -0.19960
F628        F  0.94916086  0.31101702  0.48904862    -0.22630
C629        C  0.78511180  0.12106257  0.58103938    -0.05470
C630        C  0.77195551  0.14888141  0.58354189     0.00460
C631        C  0.74824573  0.14644774  0.62530716    -0.08120
C632        C  0.73245367  0.11234501  0.65562432    -0.05490
C633        C  0.74596562  0.08503100  0.65292939     0.00440
C634        C  0.77625280  0.09234800  0.61810654    -0.08020
C635        C  0.80076787  0.07197285  0.62059793     0.62350
H636        H  0.80294401  0.12173131  0.55006574     0.13050
H637        H  0.71165514  0.10882170  0.68464648     0.13060
C638        C  0.74164929  0.17987336  0.64286620     0.62590
F639        F  0.82911360  0.08478128  0.58345907    -0.22580
F640        F  0.77708637  0.03148076  0.61603625    -0.19910
F641        F  0.82025196  0.08058679  0.66538106    -0.19590
F642        F  0.70422368  0.17184789  0.62990585    -0.19640
F643        F  0.76961456  0.21632037  0.62402681    -0.19960
F644        F  0.74472468  0.18299359  0.69389889    -0.22630
C645        C  0.73707984  0.29859614  0.50996019    -0.05470
C646        C  0.70279204  0.28325672  0.48098186     0.00460
C647        C  0.69185407  0.24848939  0.45213000    -0.08120
C648        C  0.71370989  0.22876587  0.45718441    -0.05490
C649        C  0.74821556  0.24492068  0.48543208     0.00440
C650        C  0.76120476  0.28143849  0.51027352    -0.08020
C651        C  0.80152879  0.30364629  0.53437166     0.62350
H652        H  0.74553023  0.32497827  0.53186304     0.13050
H653        H  0.70448503  0.20101508  0.43785928     0.13060
C654        C  0.65843548  0.23194732  0.41489227     0.62590
F655        F  0.80711956  0.33715821  0.55952348    -0.22580
F656        F  0.83016695  0.31588014  0.49791972    -0.19910
F657        F  0.80644907  0.27951701  0.56757027    -0.19590
F658        F  0.65307112  0.26164487  0.39477771    -0.19640
F659        F  0.62386447  0.20368996  0.43753875    -0.19960
F660        F  0.66667802  0.21393042  0.37600117    -0.22630
C661        C  0.12153953  0.38439812  0.08657418    -0.05470
C662        C  0.14275343  0.36509629  0.07504905     0.00460
C663        C  0.13276962  0.32880970  0.09921606    -0.08120
C664        C  0.10160176  0.31330474  0.13411124    -0.05490
C665        C  0.08112063  0.33335641  0.14709319     0.00440
C666        C  0.09176982  0.37014179  0.12299803    -0.08020
C667        C  0.07312646  0.39540352  0.13560804     0.62350
H668        H  0.12974729  0.41205524  0.06755287     0.13050
H669        H  0.09358190  0.28543560  0.15237718     0.13060
C670        C  0.15529731  0.30688134  0.08980031     0.62590
F671        F  0.08757315  0.42905556  0.10608087    -0.22580
F672        F  0.08145551  0.40821780  0.18413016    -0.19910
F673        F  0.03270658  0.37353729  0.12881798    -0.19590
F674        F  0.19556232  0.33305206  0.09164746    -0.19640
F675        F  0.14556843  0.28883450  0.04396546    -0.19960
F676        F  0.14625692  0.27745312  0.12479875    -0.22630
C677        C  0.22313355  0.33731428  0.93667580    -0.05470
C678        C  0.22325848  0.37269997  0.92474693     0.00460
C679        C  0.23564506  0.38911660  0.87656012    -0.08120
C680        C  0.25194658  0.37235388  0.84468516    -0.05490
C681        C  0.25227028  0.33743729  0.85708955     0.00440
C682        C  0.23621025  0.31862398  0.90304051    -0.08020
C683        C  0.23396179  0.27968472  0.91716422     0.62350
H684        H  0.21346132  0.32473356  0.97329412     0.13050
H685        H  0.26304768  0.38574993  0.80864027     0.13060
C686        C  0.23089297  0.42286745  0.85601425     0.62590
F687        F  0.22067094  0.26843267  0.96528220    -0.22580
F688        F  0.27090808  0.28352291  0.91314536    -0.19910
F689        F  0.20814937  0.24970309  0.88608928    -0.19590
F690        F  0.26752319  0.45696781  0.85254754    -0.19640
F691        F  0.20605255  0.43059601  0.88454101    -0.19960
F692        F  0.21470068  0.41292985  0.80918065    -0.22630
C693        C  0.31473228  0.56103183  0.01371014    -0.05470
C694        C  0.29427733  0.57976708  0.03225073     0.00460
C695        C  0.25579610  0.55514874  0.05229346    -0.08120
C696        C  0.23738190  0.51379395  0.04518301    -0.05490
C697        C  0.25798074  0.49517889  0.02704839     0.00440
C698        C  0.29861019  0.51953224  0.01510963    -0.08020
C699        C  0.32677876  0.50392707  0.00582560     0.62350
H700        H  0.34425886  0.57887434  0.99865279     0.13050
H701        H  0.20646503  0.49581674  0.05522658     0.13060
C702        C  0.23337326  0.57008938  0.08332654     0.62590
F703        F  0.36163235  0.52721256  0.03107084    -0.22580
F704        F  0.33533020  0.50599549  0.95582016    -0.19910
F705        F  0.31183742  0.46527001  0.02233609    -0.19590
F706        F  0.20398509  0.57014949  0.05519772    -0.19640
F707        F  0.25774870  0.60771535  0.10215312    -0.19960
F708        F  0.21585126  0.54497294  0.12342804    -0.22630
C709        C  0.36562922  0.21143239  0.88722124    -0.05470
C710        C  0.37284283  0.22906565  0.93417015     0.00460
C711        C  0.36211607  0.25818306  0.94435082    -0.08120
C712        C  0.34572165  0.26986052  0.90618701    -0.05490
C713        C  0.33842447  0.25223978  0.85923121     0.00440
C714        C  0.34844260  0.22253556  0.84936379    -0.08020
C715        C  0.34318538  0.20455249  0.79824127     0.62350
H716        H  0.37449128  0.18952295  0.88017986     0.13050
H717        H  0.33890507  0.29328959  0.91256617     0.13060
C718        C  0.36838235  0.27703672  0.99512597     0.62590
F719        F  0.35599995  0.17717744  0.79587868    -0.22580
F720        F  0.36485040  0.23448756  0.76436550    -0.19910
F721        F  0.30372507  0.18531722  0.78546135    -0.19590
F722        F  0.40796464  0.29593422  0.00699352    -0.19640
F723        F  0.34706939  0.24795707  0.03009478    -0.19960
F724        F  0.35614796  0.30487865  0.99712423    -0.22630
C725        C  0.34042855  0.11208493  0.06453789    -0.05470
C726        C  0.37365842  0.14814452  0.07900675     0.00460
C727        C  0.38531295  0.15323129  0.12949447    -0.08120
C728        C  0.36646736  0.12052152  0.16181971    -0.05490
C729        C  0.33405008  0.08445295  0.14691964     0.00440
C730        C  0.31956412  0.08049028  0.09819521    -0.08020
C731        C  0.28272364  0.04289448  0.08173840     0.62350
H732        H  0.33110134  0.10866148  0.02634826     0.13050
H733        H  0.37649948  0.12330967  0.19969886     0.13060
C734        C  0.41581270  0.19301868  0.15094156     0.62590
F735        F  0.27462295  0.04450744  0.03227756    -0.22580
F736        F  0.25057825  0.03786892  0.10919398    -0.19910
F737        F  0.28749985  0.01027128  0.08859452    -0.19590
F738        F  0.41448777  0.22395918  0.12751716    -0.19640
F739        F  0.45315178  0.19782346  0.14618392    -0.19960
F740        F  0.40852903  0.19519375  0.20074284    -0.22630
C741        C  0.51989857  0.23185942  0.97121853    -0.05470
C742        C  0.50091592  0.24866231  0.99764756     0.00460
C743        C  0.52378959  0.28547755  0.02186822    -0.08120
C744        C  0.56506303  0.30303845  0.02142525    -0.05490
C745        C  0.58466950  0.28700287  0.99423656     0.00440
C746        C  0.56145768  0.25122902  0.96704863    -0.08020
C747        C  0.57882329  0.23302181  0.93243751     0.62350
H748        H  0.50185009  0.20377811  0.95248714     0.13050
H749        H  0.58247082  0.32992511  0.04251159     0.13060
C750        C  0.50474673  0.30660774  0.04726632     0.62590
F751        F  0.55385759  0.21474216  0.89289291    -0.22580
F752        F  0.58329664  0.20454554  0.95763877    -0.19910
F753        F  0.61478961  0.26147154  0.91293871    -0.19590
F754        F  0.47833599  0.28222947  0.08297878    -0.19640
F755        F  0.48505762  0.31621825  0.01259984    -0.19960
F756        F  0.53228872  0.34153308  0.06992554    -0.22630
C757        C  0.07358541  0.34409211  0.39893568    -0.05470
C758        C  0.07986897  0.32367292  0.36031307     0.00460
C759        C  0.11414668  0.31991845  0.36048751    -0.08120
C760        C  0.14210736  0.33893420  0.39830684    -0.05490
C761        C  0.13645822  0.36093977  0.43542866     0.00440
C762        C  0.10093323  0.36225256  0.43706492    -0.08020
C763        C  0.09202961  0.38389591  0.47755618     0.62350
H764        H  0.04706044  0.34634916  0.39870307     0.13050
H765        H  0.16923984  0.33784722  0.39840867     0.13060
C766        C  0.12200945  0.29744563  0.32019432     0.62590
F767        F  0.05180001  0.36940931  0.48196006    -0.22580
F768        F  0.11022660  0.42399526  0.46627217    -0.19910
F769        F  0.10519971  0.37896977  0.52294762    -0.19590
F770        F  0.12096716  0.31259551  0.27426157    -0.19640
F771        F  0.09367470  0.25752490  0.32240719    -0.19960
F772        F  0.15862803  0.30050328  0.32533200    -0.22630
C773        C  0.21560097  0.32197489  0.64277166    -0.05470
C774        C  0.25669708  0.34151635  0.65059155     0.00460
C775        C  0.28138279  0.37677420  0.62285214    -0.08120
C776        C  0.26435891  0.38770728  0.58483963    -0.05490
C777        C  0.22335788  0.36881151  0.57781925     0.00440
C778        C  0.19825351  0.33615340  0.60881141    -0.08020
C779        C  0.15351326  0.31711338  0.60853761     0.62350
H780        H  0.19662570  0.29592337  0.66482926     0.13050
H781        H  0.28317158  0.41265826  0.56111444     0.13060
C782        C  0.32498790  0.40445078  0.63383933     0.62590
F783        F  0.13684586  0.29606600  0.65180023    -0.22580
F784        F  0.13793073  0.29081923  0.56953778    -0.19910
F785        F  0.14267211  0.34590236  0.60470477    -0.19590
F786        F  0.34583597  0.38481460  0.62760733    -0.19640
F787        F  0.32918675  0.41829914  0.68186716    -0.19960
F788        F  0.34198591  0.43740915  0.60293639    -0.22630
C789        C  0.26802821  0.50837551  0.46377678    -0.05470
C790        C  0.23876464  0.49195443  0.50050148     0.00460
C791        C  0.23195377  0.51700756  0.53185304    -0.08120
C792        C  0.25654474  0.55839967  0.52704821    -0.05490
C793        C  0.28636849  0.57521880  0.49055800     0.00440
C794        C  0.29155780  0.54972121  0.45727393    -0.08020
C795        C  0.32078109  0.56510699  0.41422608     0.62350
H796        H  0.27234360  0.48831109  0.44006499     0.13050
H797        H  0.25250186  0.57806787  0.55176829     0.13060
C798        C  0.19810888  0.49995956  0.56896802     0.62590
F799        F  0.31112014  0.53598648  0.37868069    -0.22580
F800        F  0.35828475  0.57647583  0.43087507    -0.19910
F801        F  0.32084762  0.59702677  0.39140349    -0.19590
F802        F  0.20375770  0.47728284  0.60381897    -0.19640
F803        F  0.16295219  0.47625546  0.54463613    -0.19960
F804        F  0.19492792  0.52956944  0.59350879    -0.22630
loop_ 
_geom_bond_atom_site_label_1 
_geom_bond_atom_site_label_2 
_geom_bond_distance 
_geom_bond_site_symmetry_2 
_ccdc_geom_bond_type 
C1            C2   1.408       .  A
C1            C6   1.409       .  A
C1          C777   1.495       .  S
C2            C3   1.396       .  A
C2            H7   1.084       .  S
C3            C4   1.395       .  A
C3          C790   1.473       .  S
C4            C5   1.400       .  A
C4            H8   1.084       .  S
C5            C6   1.406       .  A
C5          C761   1.479       .  S
C6            H9   1.079       .  S
C10          C11   1.404   1_556  A
C10          C15   1.403       .  A
C10         C710   1.481       .  S
C11          C12   1.409       .  A
C11          H16   1.084       .  S
C12          C13   1.409       .  A
C12         C726   1.496       .  S
C13          C14   1.404   1_554  A
C13          H17   1.081       .  S
C14          C15   1.401       .  A
C14         C742   1.484       .  S
C15          H18   1.084       .  S
C19          C20   1.409       .  A
C19          C24   1.407       .  A
C19         C678   1.494       .  S
C20          C21   1.408   1_556  A
C20          H25   1.080       .  S
C21          C22   1.404       .  A
C21         C697   1.499       .  S
C22          C23   1.403       .  A
C22          H26   1.084       .  S
C23          C24   1.402   1_554  A
C23         C662   1.490       .  S
C24          H27   1.080       .  S
C28          C29   1.412       .  A
C28          C33   1.417       .  A
C28         C630   1.513       .  S
C29          C30   1.404       .  A
C29          H34   1.079       .  S
C30          C31   1.399       .  A
C30         C649   1.481       .  S
C31          C32   1.400       .  A
C31          H35   1.084       .  S
C32          C33   1.401       .  A
C32         C614   1.479       .  S
C33          H36   1.081       .  S
C37          C38   1.412       .  A
C37          C42   1.413       .  A
C37         C566   1.508       .  S
C38          C39   1.397       .  A
C38          H43   1.083       .  S
C39          C40   1.395   1_554  A
C39         C601   1.476       .  S
C40          C41   1.399       .  A
C40          H44   1.084       .  S
C41          C42   1.408   1_556  A
C41         C585   1.480       .  S
C42          H45   1.075       .  S
C46          C47   1.402       .  A
C46          C51   1.409       .  A
C46         C598   1.494       .  S
C47          C48   1.404       .  A
C47          H52   1.080       .  S
C48          C49   1.404   1_554  A
C48         C550   1.493       .  S
C49          C50   1.408       .  A
C49          H53   1.082       .  S
C50          C51   1.407   1_556  A
C50         C745   1.502       .  S
C51          H54   1.079       .  S
C55          C56   1.409       .  A
C55          C60   1.405       .  A
C55         C521   1.495       .  S
C56          C57   1.408       .  A
C56          H61   1.076       .  S
C57          C58   1.407   1_556  A
C57         C553   1.504   1_556  S
C58          C59   1.403       .  A
C58          H62   1.083       .  S
C59          C60   1.396   1_554  A
C59         C534   1.482       .  S
C60          H63   1.081       .  S
O64         Ni72   1.908   1_455  S
O64          C74   1.277       .  A
O65         Ni72   1.906       .  S
O65          C75   1.279       .  A
O66         Ni72   1.907   1_455  S
O66          C76   1.280       .  A
O67         Ni72   1.913       .  S
O67          C77   1.279       .  A
O68         Ni73   1.921       .  S
O68          C77   1.282       .  A
O69         Ni73   1.922   1_455  S
O69          C76   1.281       .  A
O70         Ni73   1.927       .  S
O70          C75   1.282       .  A
O71         Ni73   1.926   1_455  S
O71          C74   1.284       .  A
Ni72        Ni73   2.384       .  S
C74         C665   1.499       .  S
C75         C617   1.477       .  S
C76         C758   1.480       .  S
C77         C569   1.480       .  S
C78          C79   1.407       .  A
C78          C83   1.415       .  A
C78         C486   1.501       .  S
C79          C80   1.398       .  A
C79          H84   1.079       .  S
C80          C81   1.394       .  A
C80         C502   1.471       .  S
C81          C82   1.399       .  A
C81          H85   1.084       .  S
C82          C83   1.404       .  A
C82         C473   1.481       .  S
C83          H86   1.082       .  S
C87          C88   1.401       .  A
C87          C92   1.398       .  A
C87         C454   1.476       .  S
C88          C89   1.402       .  A
C88          H93   1.080       .  S
C89          C90   1.405       .  A
C89         C793   1.487       .  S
C90          C91   1.403       .  A
C90          H94   1.081       .  S
C91          C92   1.402       .  A
C91         C505   1.484       .  S
C92          H95   1.083       .  S
C96          C97   1.408       .  A
C96         C101   1.410       .  A
C96         C422   1.495       .  S
C97          C98   1.401       .  A
C97         H102   1.080       .  S
C98          C99   1.394       .  A
C98         C457   1.475       .  S
C99         C100   1.398       .  A
C99         H103   1.084       .  S
C100        C101   1.403       .  A
C100        C438   1.475       .  S
C101        H104   1.083       .  S
C105        C106   1.401       .  A
C105        C110   1.404       .  A
C105        C374   1.476       .  S
C106        C107   1.398       .  A
C106        H111   1.084       .  S
C107        C108   1.400       .  A
C107        C406   1.477       .  S
C108        C109   1.406       .  A
C108        H112   1.084       .  S
C109        C110   1.404       .  A
C109        C390   1.482       .  S
C110        H113   1.082       .  S
C114        C115   1.407       .  A
C114        C119   1.403       .  A
C114        C409   1.485       .  S
C115        C116   1.407       .  A
C115        H120   1.079       .  S
C116        C117   1.410       .  A
C116        C646   1.498       .  S
C117        C118   1.400       .  A
C117        H121   1.082       .  S
C118        C119   1.400       .  A
C118        C358   1.483       .  S
C119        H122   1.084       .  S
C123        C124   1.401       .  A
C123        C128   1.400       .  A
C123        C342   1.477       .  S
C124        C125   1.401       .  A
C124        H129   1.084       .  S
C125        C126   1.403       .  A
C125        C361   1.482       .  S
C126        C127   1.404       .  A
C126        H130   1.082       .  S
C127        C128   1.402       .  A
C127        C326   1.477       .  S
C128        H131   1.084       .  S
C132        C133   1.402       .  A
C132        C137   1.402       .  A
C132        C294   1.477       .  S
C133        C134   1.407       .  A
C133        H138   1.082       .  S
C134        C135   1.408   1_556  A
C134        C310   1.502       .  S
C135        C136   1.408       .  A
C135        H139   1.079       .  S
C136        C137   1.402   1_554  A
C136        C281   1.491       .  S
C137        H140   1.080       .  S
C141        C142   1.412       .  A
C141        C146   1.409       .  A
C141        C313   1.506   1_554  S
C142        C143   1.414       .  A
C142        H147   1.075       .  S
C143        C144   1.407       .  A
C143        C694   1.505       .  S
C144        C145   1.398       .  A
C144        H148   1.083       .  S
C145        C146   1.397       .  A
C145        C265   1.479       .  S
C146        H149   1.083   1_554  S
C150        C151   1.405       .  A
C150        C155   1.407       .  A
C150        C230   1.489       .  S
C151        C152   1.397   1_556  A
C151        H156   1.084       .  S
C152        C153   1.399       .  A
C152        C262   1.477       .  S
C153        C154   1.405       .  A
C153        H157   1.081       .  S
C154        C155   1.409   1_554  A
C154        C246   1.490       .  S
C155        H158   1.081       .  S
O159       Ni167   1.932       .  S
O159        C169   1.284       .  A
O160       Ni167   1.925   1_545  S
O160        C170   1.283       .  A
O161       Ni167   1.918       .  S
O161        C171   1.280       .  A
O162       Ni167   1.913   1_545  S
O162        C172   1.278       .  A
O163       Ni168   1.929   1_545  S
O163        C172   1.285       .  A
O164       Ni168   1.926       .  S
O164        C171   1.283       .  A
O165       Ni168   1.910   1_545  S
O165        C170   1.278       .  A
O166       Ni168   1.914       .  S
O166        C169   1.279       .  A
Ni167      Ni168   2.386       .  S
C169        C425   1.484       .  S
C170        C582   1.478       .  S
C171        C233   1.480       .  S
C172        C633   1.493       .  S
O173       Ni181   1.925       .  S
O173        C183   1.282       .  A
O174       Ni181   1.926       .  S
O174        C184   1.282       .  A
O175       Ni181   1.926       .  S
O175        C185   1.281       .  A
O176       Ni181   1.922       .  S
O176        C186   1.280       .  A
O177       Ni182   1.918       .  S
O177        C186   1.284       .  A
O178       Ni182   1.921       .  S
O178        C185   1.282       .  A
O179       Ni182   1.911       .  S
O179        C184   1.280       .  A
O180       Ni182   1.910       .  S
O180        C183   1.278       .  A
Ni181      Ni182   2.386       .  S
C183        C537   1.471       .  S
C184        C441   1.486       .  S
C185        C345   1.478       .  S
C186        C249   1.498       .  S
O187       Ni195   1.920   1_545  S
O187        C197   1.280       .  A
O188       Ni195   1.920       .  S
O188        C198   1.280       .  A
O189       Ni195   1.936   1_545  S
O189        C199   1.286       .  A
O190       Ni195   1.932       .  S
O190        C200   1.285       .  A
O191       Ni196   1.904       .  S
O191        C200   1.276       .  A
O192       Ni196   1.904   1_545  S
O192        C199   1.276       .  A
O193       Ni196   1.914       .  S
O193        C198   1.282       .  A
O194       Ni196   1.917   1_545  S
O194        C197   1.281       .  A
Ni195      Ni196   2.383       .  S
C197        C729   1.476       .  S
C198        C470   1.486       .  S
C199        C393   1.488       .  S
C200        C278   1.495       .  S
O201       Ni209   1.911       .  S
O201        C211   1.280       .  A
O202       Ni209   1.915   1_455  S
O202        C212   1.279       .  A
O203       Ni209   1.919       .  S
O203        C213   1.282       .  A
O204       Ni209   1.918   1_455  S
O204        C214   1.283       .  A
O205       Ni210   1.913   1_455  S
O205        C214   1.278       .  A
O206       Ni210   1.916       .  S
O206        C213   1.280       .  A
O207       Ni210   1.926   1_455  S
O207        C212   1.282       .  A
O208       Ni210   1.921       .  S
O208        C211   1.281       .  A
Ni209      Ni210   2.386       .  S
C211        C329   1.477       .  S
C212        C297   1.474       .  S
C213        C518   1.475       .  S
C214        C489   1.498       .  S
O215       Ni223   1.909       .  S
O215        C225   1.277       .  A
O216       Ni223   1.916       .  S
O216        C226   1.280       .  A
O217       Ni223   1.924       .  S
O217        C227   1.282       .  A
O218       Ni223   1.922       .  S
O218        C228   1.282       .  A
O219       Ni224   1.917       .  S
O219        C228   1.280       .  A
O220       Ni224   1.918       .  S
O220        C227   1.280       .  A
O221       Ni224   1.928       .  S
O221        C226   1.283       .  A
O222       Ni224   1.929       .  S
O222        C225   1.286       .  A
Ni223      Ni224   2.385       .  S
C225        C774   1.498       .  S
C226        C713   1.479       .  S
C227        C377   1.482       .  S
C228        C681   1.479       .  S
C229        C230   1.404       .  A
C229        C234   1.403       .  A
C229        H236   1.083       .  S
C230        C231   1.422       .  A
C231        C232   1.411       .  A
C231        C238   1.520       .  S
C232        C233   1.403       .  A
C232        H237   1.083       .  S
C233        C234   1.412       .  A
C234        C235   1.510       .  S
C235        F239   1.384       .  S
C235        F240   1.382       .  S
C235        F241   1.382       .  S
C238        F242   1.381   1_556  S
C238        F243   1.383   1_556  S
C238        F244   1.385       .  S
C245        C246   1.404       .  A
C245        C250   1.410       .  A
C245        H252   1.083       .  S
C246        C247   1.417       .  A
C247        C248   1.404       .  A
C247        C254   1.520       .  S
C248        C249   1.409       .  A
C248        H253   1.083       .  S
C249        C250   1.426       .  A
C250        C251   1.520       .  S
C251        F255   1.385       .  S
C251        F256   1.383       .  S
C251        F257   1.379       .  S
C254        F258   1.383   1_554  S
C254        F259   1.381       .  S
C254        F260   1.385       .  S
C261        C262   1.401       .  A
C261        C266   1.409       .  A
C261        H268   1.083       .  S
C262        C263   1.417   1_554  A
C263        C264   1.403       .  A
C263        C270   1.519       .  S
C264        C265   1.401   1_556  A
C264        H269   1.083       .  S
C265        C266   1.417       .  A
C266        C267   1.517       .  S
C267        F271   1.384       .  S
C267        F272   1.383       .  S
C267        F273   1.381       .  S
C270        F274   1.381       .  S
C270        F275   1.382       .  S
C270        F276   1.385       .  S
C277        C278   1.409       .  A
C277        C282   1.413       .  A
C277        H284   1.083       .  S
C278        C279   1.426       .  A
C279        C280   1.404       .  A
C279        C286   1.524       .  S
C280        C281   1.401       .  A
C280        H285   1.081       .  S
C281        C282   1.419       .  A
C282        C283   1.520       .  S
C283        F287   1.385       .  S
C283        F288   1.383       .  S
C283        F289   1.381       .  S
C286        F290   1.383       .  S
C286        F291   1.383       .  S
C286        F292   1.385       .  S
C293        C294   1.399       .  A
C293        C298   1.401       .  A
C293        H300   1.085       .  S
C294        C295   1.413       .  A
C295        C296   1.410       .  A
C295        C302   1.517       .  S
C296        C297   1.406       .  A
C296        H301   1.084       .  S
C297        C298   1.419       .  A
C298        C299   1.516       .  S
C299        F303   1.383       .  S
C299        F304   1.378       .  S
C299        F305   1.383       .  S
C302        F306   1.382       .  S
C302        F307   1.383       .  S
C302        F308   1.384       .  S
C309        C310   1.410       .  A
C309        C314   1.410       .  A
C309        H316   1.083       .  S
C310        C311   1.423   1_556  A
C311        C312   1.402       .  A
C311        C318   1.522       .  S
C312        C313   1.409   1_554  A
C312        H317   1.081       .  S
C313        C314   1.424       .  A
C314        C315   1.519       .  S
C315        F319   1.385       .  S
C315        F320   1.383       .  S
C315        F321   1.382       .  S
C318        F322   1.382       .  S
C318        F323   1.382   1_554  S
C318        F324   1.385       .  S
C325        C326   1.402       .  A
C325        C330   1.407       .  A
C325        H332   1.083       .  S
C326        C327   1.414       .  A
C327        C328   1.405       .  A
C327        C334   1.519       .  S
C328        C329   1.404       .  A
C328        H333   1.083       .  S
C329        C330   1.418       .  A
C330        C331   1.518       .  S
C331        F335   1.385       .  S
C331        F336   1.382       .  S
C331        F337   1.381       .  S
C334        F338   1.383       .  S
C334        F339   1.381       .  S
C334        F340   1.385       .  S
C341        C342   1.403       .  A
C341        C346   1.408       .  A
C341        H348   1.083       .  S
C342        C343   1.415       .  A
C343        C344   1.401       .  A
C343        C350   1.521       .  S
C344        C345   1.397       .  A
C344        H349   1.072       .  S
C345        C346   1.414       .  A
C346        C347   1.512       .  S
C347        F351   1.384       .  S
C347        F352   1.378       .  S
C347        F353   1.383       .  S
C350        F354   1.381       .  S
C350        F355   1.383       .  S
C350        F356   1.384       .  S
C357        C358   1.405       .  A
C357        C362   1.407       .  A
C357        H364   1.083       .  S
C358        C359   1.417       .  A
C359        C360   1.406       .  A
C359        C366   1.520       .  S
C360        C361   1.404       .  A
C360        H365   1.083       .  S
C361        C362   1.416       .  A
C362        C363   1.519       .  S
C363        F367   1.385       .  S
C363        F368   1.383       .  S
C363        F369   1.381       .  S
C366        F370   1.383       .  S
C366        F371   1.381       .  S
C366        F372   1.385       .  S
C373        C374   1.398       .  A
C373        C378   1.403       .  A
C373        H380   1.084       .  S
C374        C375   1.414       .  A
C375        C376   1.409       .  A
C375        C382   1.517       .  S
C376        C377   1.405       .  A
C376        H381   1.082       .  S
C377        C378   1.418       .  A
C378        C379   1.513       .  S
C379        F383   1.385       .  S
C379        F384   1.382       .  S
C379        F385   1.383       .  S
C382        F386   1.383       .  S
C382        F387   1.382       .  S
C382        F388   1.385       .  S
C389        C390   1.398       .  A
C389        C394   1.402       .  A
C389        H396   1.084       .  S
C390        C391   1.418       .  A
C391        C392   1.411       .  A
C391        C398   1.518       .  S
C392        C393   1.406       .  A
C392        H397   1.083       .  S
C393        C394   1.424       .  A
C394        C395   1.518       .  S
C395        F399   1.385       .  S
C395        F400   1.383       .  S
C395        F401   1.379       .  S
C398        F402   1.383       .  S
C398        F403   1.381       .  S
C398        F404   1.385       .  S
C405        C406   1.401       .  A
C405        C410   1.405       .  A
C405        H412   1.085       .  S
C406        C407   1.413       .  A
C407        C408   1.406       .  A
C407        C414   1.518       .  S
C408        C409   1.407       .  A
C408        H413   1.083       .  S
C409        C410   1.421       .  A
C410        C411   1.520       .  S
C411        F415   1.385       .  S
C411        F416   1.382       .  S
C411        F417   1.382       .  S
C414        F418   1.383       .  S
C414        F419   1.382       .  S
C414        F420   1.385       .  S
C421        C422   1.407       .  A
C421        C426   1.408       .  A
C421        H428   1.082       .  S
C422        C423   1.422       .  A
C423        C424   1.402       .  A
C423        C430   1.517       .  S
C424        C425   1.398       .  A
C424        H429   1.080       .  S
C425        C426   1.415       .  A
C426        C427   1.509       .  S
C427        F431   1.385       .  S
C427        F432   1.382       .  S
C427        F433   1.383       .  S
C430        F434   1.379       .  S
C430        F435   1.382       .  S
C430        F436   1.382       .  S
C437        C438   1.400       .  A
C437        C442   1.408       .  A
C437        H444   1.083       .  S
C438        C439   1.412       .  A
C439        C440   1.402       .  A
C439        C446   1.520       .  S
C440        C441   1.406       .  A
C440        H445   1.081       .  S
C441        C442   1.421       .  A
C442        C443   1.515       .  S
C443        F447   1.385       .  S
C443        F448   1.381       .  S
C443        F449   1.382       .  S
C446        F450   1.381       .  S
C446        F451   1.383       .  S
C446        F452   1.385       .  S
C453        C454   1.400       .  A
C453        C458   1.398       .  A
C453        H460   1.085       .  S
C454        C455   1.418       .  A
C455        C456   1.407       .  A
C455        C462   1.519       .  S
C456        C457   1.403       .  A
C456        H461   1.083       .  S
C457        C458   1.417       .  A
C458        C459   1.517       .  S
C459        F463   1.384       .  S
C459        F464   1.382       .  S
C459        F465   1.381       .  S
C462        F466   1.381       .  S
C462        F467   1.384       .  S
C462        F468   1.385       .  S
C469        C470   1.402       .  A
C469        C474   1.397       .  A
C469        H476   1.082       .  S
C470        C471   1.422       .  A
C471        C472   1.412       .  A
C471        C478   1.519       .  S
C472        C473   1.404       .  A
C472        H477   1.083       .  S
C473        C474   1.416       .  A
C474        C475   1.520       .  S
C475        F479   1.385       .  S
C475        F480   1.383       .  S
C475        F481   1.382       .  S
C478        F482   1.384       .  S
C478        F483   1.383       .  S
C478        F484   1.385       .  S
C485        C486   1.407       .  A
C485        C490   1.407       .  A
C485        H492   1.081       .  S
C486        C487   1.426       .  A
C487        C488   1.405       .  A
C487        C494   1.523       .  S
C488        C489   1.407       .  A
C488        H493   1.083       .  S
C489        C490   1.426       .  A
C490        C491   1.522       .  S
C491        F495   1.385       .  S
C491        F496   1.383       .  S
C491        F497   1.384       .  S
C494        F498   1.383       .  S
C494        F499   1.382       .  S
C494        F500   1.385       .  S
C501        C502   1.400       .  A
C501        C506   1.402       .  A
C501        H508   1.085       .  S
C502        C503   1.409       .  A
C503        C504   1.404       .  A
C503        C510   1.516       .  S
C504        C505   1.408       .  A
C504        H509   1.083       .  S
C505        C506   1.421       .  A
C506        C507   1.520       .  S
C507        F511   1.385       .  S
C507        F512   1.382       .  S
C507        F513   1.383       .  S
C510        F514   1.382       .  S
C510        F515   1.382       .  S
C510        F516   1.385       .  S
C517        C518   1.405       .  A
C517        C522   1.405       .  A
C517        H524   1.085       .  S
C518        C519   1.419       .  A
C519        C520   1.403       .  A
C519        C526   1.520       .  S
C520        C521   1.408       .  A
C520        H525   1.083       .  S
C521        C522   1.419       .  A
C522        C523   1.518       .  S
C523        F527   1.384       .  S
C523        F528   1.383       .  S
C523        F529   1.383       .  S
C526        F530   1.383       .  S
C526        F531   1.377       .  S
C526        F532   1.383       .  S
C533        C534   1.402       .  A
C533        C538   1.400       .  A
C533        H540   1.083       .  S
C534        C535   1.421       .  A
C535        C536   1.409       .  A
C535        C542   1.520       .  S
C536        C537   1.400       .  A
C536        H541   1.084       .  S
C537        C538   1.410       .  A
C538        C539   1.508       .  S
C539        F543   1.385       .  S
C539        F544   1.383       .  S
C539        F545   1.383       .  S
C542        F546   1.383   1_554  S
C542        F547   1.381   1_554  S
C542        F548   1.385       .  S
C549        C550   1.404   1_556  A
C549        C554   1.405       .  A
C549        H556   1.082       .  S
C550        C551   1.418       .  A
C551        C552   1.404       .  A
C551        C558   1.520       .  S
C552        C553   1.412       .  A
C552        H557   1.083       .  S
C553        C554   1.426   1_554  A
C554        C555   1.521       .  S
C555        F559   1.385       .  S
C555        F560   1.382       .  S
C555        F561   1.383       .  S
C558        F562   1.383       .  S
C558        F563   1.382       .  S
C558        F564   1.385       .  S
C565        C566   1.412       .  A
C565        C570   1.405       .  A
C565        H572   1.082       .  S
C566        C567   1.429       .  A
C567        C568   1.410       .  A
C567        C574   1.519       .  S
C568        C569   1.400       .  A
C568        H573   1.084       .  S
C569        C570   1.415       .  A
C570        C571   1.522       .  S
C571        F575   1.385       .  S
C571        F576   1.383       .  S
C571        F577   1.379       .  S
C574        F578   1.380   1_554  S
C574        F579   1.381       .  S
C574        F580   1.385       .  S
C581        C582   1.401       .  A
C581        C586   1.405       .  A
C581        H588   1.083       .  S
C582        C583   1.420       .  A
C583        C584   1.408       .  A
C583        C590   1.518       .  S
C584        C585   1.401       .  A
C584        H589   1.083       .  S
C585        C586   1.416       .  A
C586        C587   1.515       .  S
C587        F591   1.385       .  S
C587        F592   1.378       .  S
C587        F593   1.383       .  S
C590        F594   1.380   1_545  S
C590        F595   1.382       .  S
C590        F596   1.385       .  S
C597        C598   1.407       .  A
C597        C602   1.406       .  A
C597        H604   1.083       .  S
C598        C599   1.429   1_554  A
C599        C600   1.406       .  A
C599        C606   1.522       .  S
C600        C601   1.395   1_556  A
C600        H605   1.084       .  S
C601        C602   1.413       .  A
C602        C603   1.518       .  S
C603        F607   1.384       .  S
C603        F608   1.383       .  S
C603        F609   1.383       .  S
C606        F610   1.381       .  S
C606        F611   1.383       .  S
C606        F612   1.385       .  S
C613        C614   1.404       .  A
C613        C618   1.409       .  A
C613        H620   1.083       .  S
C614        C615   1.412       .  A
C615        C616   1.404       .  A
C615        C622   1.515       .  S
C616        C617   1.404       .  A
C616        H621   1.084       .  S
C617        C618   1.416       .  A
C618        C619   1.519       .  S
C619        F623   1.384       .  S
C619        F624   1.382       .  S
C619        F625   1.380       .  S
C622        F626   1.383       .  S
C622        F627   1.378       .  S
C622        F628   1.385       .  S
C629        C630   1.411       .  A
C629        C634   1.406       .  A
C629        H636   1.078       .  S
C630        C631   1.429       .  A
C631        C632   1.407       .  A
C631        C638   1.519       .  S
C632        C633   1.403       .  A
C632        H637   1.085       .  S
C633        C634   1.421       .  A
C634        C635   1.520       .  S
C635        F639   1.385       .  S
C635        F640   1.373       .  S
C635        F641   1.383       .  S
C638        F642   1.383       .  S
C638        F643   1.379       .  S
C638        F644   1.385       .  S
C645        C646   1.407       .  A
C645        C650   1.401       .  A
C645        H652   1.082       .  S
C646        C647   1.427       .  A
C647        C648   1.412       .  A
C647        C654   1.519       .  S
C648        C649   1.401       .  A
C648        H653   1.084       .  S
C649        C650   1.414       .  A
C650        C651   1.518       .  S
C651        F655   1.384       .  S
C651        F656   1.380       .  S
C651        F657   1.380       .  S
C654        F658   1.383       .  S
C654        F659   1.382       .  S
C654        F660   1.385       .  S
C661        C662   1.402       .  A
C661        C666   1.404       .  A
C661        H668   1.083       .  S
C662        C663   1.418       .  A
C663        C664   1.410       .  A
C663        C670   1.521       .  S
C664        C665   1.411       .  A
C664        H669   1.082       .  S
C665        C666   1.428       .  A
C666        C667   1.524       .  S
C667        F671   1.385       .  S
C667        F672   1.384       .  S
C667        F673   1.383       .  S
C670        F674   1.383       .  S
C670        F675   1.381       .  S
C670        F676   1.385       .  S
C677        C678   1.408       .  A
C677        C682   1.407       .  A
C677        H684   1.083       .  S
C678        C679   1.422       .  A
C679        C680   1.407       .  A
C679        C686   1.518       .  S
C680        C681   1.402       .  A
C680        H685   1.085       .  S
C681        C682   1.415       .  A
C682        C683   1.518       .  S
C683        F687   1.385       .  S
C683        F688   1.380       .  S
C683        F689   1.382       .  S
C686        F690   1.383       .  S
C686        F691   1.382       .  S
C686        F692   1.384       .  S
C693        C694   1.413       .  A
C693        C698   1.405       .  A
C693        H700   1.083   1_554  S
C694        C695   1.422       .  A
C695        C696   1.405       .  A
C695        C702   1.519       .  S
C696        C697   1.410       .  A
C696        H701   1.083       .  S
C697        C698   1.419       .  A
C698        C699   1.519       .  S
C699        F703   1.385       .  S
C699        F704   1.383   1_554  S
C699        F705   1.382       .  S
C702        F706   1.383       .  S
C702        F707   1.382       .  S
C702        F708   1.385       .  S
C709        C710   1.403       .  A
C709        C714   1.409       .  A
C709        H716   1.083       .  S
C710        C711   1.415       .  A
C711        C712   1.407       .  A
C711        C718   1.517       .  S
C712        C713   1.402       .  A
C712        H717   1.081       .  S
C713        C714   1.416       .  A
C714        C715   1.515       .  S
C715        F719   1.384       .  S
C715        F720   1.383       .  S
C715        F721   1.382       .  S
C718        F722   1.381   1_556  S
C718        F723   1.382   1_556  S
C718        F724   1.385       .  S
C725        C726   1.409       .  A
C725        C730   1.410       .  A
C725        H732   1.083       .  S
C726        C727   1.423       .  A
C727        C728   1.405       .  A
C727        C734   1.518       .  S
C728        C729   1.399       .  A
C728        H733   1.084       .  S
C729        C730   1.414       .  A
C730        C731   1.518       .  S
C731        F735   1.384       .  S
C731        F736   1.383       .  S
C731        F737   1.382       .  S
C734        F738   1.382       .  S
C734        F739   1.382       .  S
C734        F740   1.385       .  S
C741        C742   1.401       .  A
C741        C746   1.412       .  A
C741        H748   1.084       .  S
C742        C743   1.413   1_556  A
C743        C744   1.403       .  A
C743        C750   1.517       .  S
C744        C745   1.409   1_554  A
C744        H749   1.081       .  S
C745        C746   1.427       .  A
C746        C747   1.519       .  S
C747        F751   1.385       .  S
C747        F752   1.383       .  S
C747        F753   1.383       .  S
C750        F754   1.380       .  S
C750        F755   1.381       .  S
C750        F756   1.385       .  S
C757        C758   1.403       .  A
C757        C762   1.400       .  A
C757        H764   1.084       .  S
C758        C759   1.419       .  A
C759        C760   1.411       .  A
C759        C766   1.518       .  S
C760        C761   1.403       .  A
C760        H765   1.083       .  S
C761        C762   1.416       .  A
C762        C763   1.520       .  S
C763        F767   1.385       .  S
C763        F768   1.382       .  S
C763        F769   1.383       .  S
C766        F770   1.384       .  S
C766        F771   1.383       .  S
C766        F772   1.385       .  S
C773        C774   1.410       .  A
C773        C778   1.410       .  A
C773        H780   1.083       .  S
C774        C775   1.427       .  A
C775        C776   1.404       .  A
C775        C782   1.524       .  S
C776        C777   1.404       .  A
C776        H781   1.082       .  S
C777        C778   1.420       .  A
C778        C779   1.521       .  S
C779        F783   1.385       .  S
C779        F784   1.381       .  S
C779        F785   1.384       .  S
C782        F786   1.376       .  S
C782        F787   1.383       .  S
C782        F788   1.385       .  S
C789        C790   1.399       .  A
C789        C794   1.404       .  A
C789        H796   1.084       .  S
C790        C791   1.410       .  A
C791        C792   1.405       .  A
C791        C798   1.518       .  S
C792        C793   1.408       .  A
C792        H797   1.083       .  S
C793        C794   1.424       .  A
C794        C795   1.522       .  S
C795        F799   1.385       .  S
C795        F800   1.382       .  S
C795        F801   1.383       .  S
C798        F802   1.382       .  S
C798        F803   1.383       .  S
C798        F804   1.384       .  S
