geometry optimzed in LAMMPS
_audit_creation_date              2020-12-01 
_audit_creation_method            'lammps2cif' 
_symmetry_space_group_name_H-M    'P1' 
_symmetry_Int_Tables_number       1 
_symmetry_cell_setting            triclinic 
loop_ 
_symmetry_equiv_pos_as_xyz 
  x,y,z 
_cell_length_a                    34.04706706 
_cell_length_b                    28.387767510973255 
_cell_length_c                    40.80304852662038 
_cell_angle_alpha                 90.03220592221575 
_cell_angle_beta                  89.67574627571736 
_cell_angle_gamma                 89.7116362770464 
loop_ 
_atom_site_label 
_atom_site_type_symbol 
_atom_site_fract_x 
_atom_site_fract_y 
_atom_site_fract_z 
_atom_site_charge 
N1          N  0.64621636  0.46985864  0.02582639    -0.35700
N2          N  0.56088625  0.46787762  0.02620520    -0.56300
N3          N  0.55868328  0.51771457  0.46466025    -0.35700
N4          N  0.64455185  0.52110325  0.46423860    -0.56300
C5          C  0.63801162  0.45784876  0.05727437     0.27900
C6          C  0.68260631  0.48869693  0.02537537     0.27900
C7          C  0.52037190  0.50582667  0.46780477     0.27900
C8          C  0.56499646  0.52826814  0.43279029     0.27900
C9          C  0.56993503  0.43365664  0.04772865     0.36500
C10         C  0.52375025  0.45974527  0.01663227     0.36500
C11         C  0.68396561  0.51642537  0.46743755     0.36500
C12         C  0.63801477  0.53771250  0.43365119     0.36500
C13         C  0.66938963  0.46935635  0.07712437    -0.21000
C14         C  0.69754950  0.48883323  0.05700520    -0.21000
C15         C  0.50257701  0.50679654  0.43741676    -0.21000
C16         C  0.53026556  0.52227881  0.41550731    -0.21000
C17         C  0.53907373  0.40228676  0.05082682    -0.22000
C18         C  0.51004391  0.41817634  0.03025114    -0.22000
C19         C  0.70231517  0.52894011  0.43823326    -0.22000
C20         C  0.67333973  0.54316444  0.41716749    -0.22000
C21         C  0.60334861  0.43508306  0.06772873    -0.17400
C22         C  0.70334623  0.50344066  0.99694206    -0.17400
C23         C  0.60076634  0.54451478  0.41911413    -0.17400
C24         C  0.50200997  0.49158641  0.49731457    -0.17400
H25         H  0.67183369  0.46444521  0.10332833     0.15500
H26         H  0.72573534  0.50195645  0.06492194     0.15500
H27         H  0.47289978  0.49659626  0.43140202     0.15500
H28         H  0.52499555  0.52710487  0.38966387     0.15500
H29         H  0.53744544  0.37181899  0.06670462     0.13800
H30         H  0.48151825  0.40230538  0.02682950     0.13800
H31         H  0.73319298  0.52749517  0.43207605     0.13800
H32         H  0.67772331  0.55417448  0.39201867     0.13800
H33         H  0.62945743  0.46129969  0.00539598     0.27100
H34         H  0.57812587  0.52321702  0.48382813     0.27100
N35         N  0.31493177  0.47720299  0.03646460    -0.35700
N36         N  0.31394419  0.52965621  0.47505915    -0.56300
N37         N  0.39974246  0.52552605  0.47389996    -0.35700
N38         N  0.40094695  0.48106598  0.03715567    -0.56300
C39         C  0.27587037  0.48607183  0.03372043     0.27900
C40         C  0.32168085  0.46305951  0.06769542     0.27900
C41         C  0.39101027  0.56099121  0.45309291     0.27900
C42         C  0.43693906  0.53267749  0.48404250     0.27900
C43         C  0.27619468  0.51530744  0.47593356     0.36500
C44         C  0.32128653  0.54360083  0.44393352     0.36500
C45         C  0.39511699  0.46762283  0.06850359     0.36500
C46         C  0.44001705  0.48808106  0.03366328     0.36500
C47         C  0.25788662  0.47746130  0.06381852    -0.21000
C48         C  0.28655040  0.46216072  0.08488784    -0.21000
C49         C  0.42233035  0.59189942  0.45097882    -0.21000
C50         C  0.45110955  0.57450719  0.47118982    -0.21000
C51         C  0.25961429  0.52007988  0.44505864    -0.22000
C52         C  0.28818435  0.53812973  0.42481900    -0.22000
C53         C  0.43045797  0.46855809  0.08534096    -0.22000
C54         C  0.45839856  0.48341838  0.06363965    -0.22000
C55         C  0.25605420  0.50044465  0.00460788    -0.17400
C56         C  0.35867658  0.45380885  0.08215147    -0.17400
C57         C  0.45839239  0.50121541  0.50390246    -0.17400
C58         C  0.35721860  0.56300521  0.43343123    -0.17400
H59         H  0.22750159  0.48274728  0.07069973     0.15500
H60         H  0.28223169  0.45363586  0.11051034     0.15500
H61         H  0.42430465  0.62342441  0.43616192     0.15500
H62         H  0.47959759  0.59011912  0.47530543     0.15500
H63         H  0.23015856  0.51098152  0.43762631     0.13800
H64         H  0.28492100  0.54585329  0.39901254     0.13800
H65         H  0.43600577  0.46070449  0.11079096     0.13800
H66         H  0.48864897  0.49072019  0.06966893     0.13800
H67         H  0.33534822  0.47763365  0.01752043     0.27100
H68         H  0.38340327  0.49495027  0.47746756     0.27100
O69         O  0.43698907  0.61739190  0.30770087    -0.56900
C70         C  0.33140461  0.57017701  0.29265196     0.75700
O71         O  0.33551015  0.61209024  0.38857469    -0.58100
C72         C  0.45823660  0.62789408  0.33199421     0.75700
C73         C  0.36202558  0.72923591  0.33295558     0.78100
Cd74       Cd  0.37421412  0.62885633  0.33778241     1.37500
O75         O  0.36778095  0.56506852  0.29739279    -0.56900
O76         O  0.37670672  0.70564161  0.30960290    -0.55700
C77         C  0.36116189  0.58478097  0.40058135     0.78000
O78         O  0.35015725  0.70623795  0.35756148    -0.58100
O79         O  0.31459550  0.60336060  0.30804210    -0.56500
O80         O  0.44069604  0.63924412  0.35826291    -0.56500
O81         O  0.39143797  0.57733906  0.38326537    -0.55700
O82         O  0.44022719  0.38604636  0.19897178    -0.56900
C83         C  0.33028867  0.43504127  0.21858618     0.75700
O84         O  0.34854015  0.38687944  0.11703097    -0.58100
C85         C  0.45920354  0.37738176  0.17288994     0.75700
C86         C  0.36034715  0.27699661  0.17834813     0.78100
Cd87       Cd  0.37423979  0.37744138  0.17339077     1.37500
O88         O  0.36739089  0.43353679  0.21854058    -0.56900
O89         O  0.37406576  0.30023980  0.20212195    -0.55700
C90         C  0.35986451  0.42908688  0.11406155     0.78000
O91         O  0.34931317  0.30055794  0.15373915    -0.58100
O92         O  0.31293784  0.40692825  0.19945447    -0.56500
O93         O  0.43917307  0.36878037  0.14763941    -0.56500
O94         O  0.37480660  0.44794353  0.13907109    -0.55700
C95         C  0.24930556  0.50642659  0.25420210     0.81100
N96         N  0.27006340  0.54078181  0.26943985    -0.77200
C97         C  0.30979326  0.53810845  0.27117992     0.83600
N98         N  0.32909368  0.50250411  0.25569208    -0.77100
C99         C  0.30885825  0.46935333  0.23887812     0.83700
N100        N  0.26899903  0.47098997  0.23861149    -0.78800
O101        O  0.44067067  0.88532910  0.30799759    -0.56900
C102        C  0.33034016  0.93487621  0.29178479     0.75700
O103        O  0.34908801  0.80474049  0.35661712    -0.58100
C104        C  0.46102710  0.87856954  0.33341815     0.75700
C105        C  0.36308114  0.93291405  0.39670723     0.78100
Cd106      Cd  0.37630009  0.88046670  0.33707070     1.37500
O107        O  0.36739660  0.93657611  0.29268490    -0.56900
O108        O  0.37505033  0.95224913  0.37065508    -0.55700
C109        C  0.36210296  0.78084468  0.33268446     0.78000
O110        O  0.35591982  0.88924945  0.39499047    -0.58100
O111        O  0.31382091  0.90551819  0.31065628    -0.56500
O112        O  0.44242157  0.87328892  0.36003172    -0.56500
O113        O  0.37807226  0.80346847  0.30955250    -0.55700
O114        O  0.44055100  0.11492359  0.19912628    -0.56900
C115        C  0.32974065  0.06877058  0.21757243     0.75700
O116        O  0.35106704  0.20195764  0.15283631    -0.58100
C117        C  0.45978320  0.12677336  0.17379808     0.75700
C118        C  0.36533071  0.06843805  0.11489185     0.78100
Cd119      Cd  0.37559168  0.12469306  0.17294429     1.37500
O120        O  0.36678495  0.07071248  0.21895334    -0.56900
O121        O  0.38736849  0.05575526  0.13805847    -0.55700
C122        C  0.36081976  0.22513206  0.17800778     0.78000
O123        O  0.34756118  0.10746765  0.11865553    -0.58100
O124        O  0.31312868  0.09552415  0.19701947    -0.56500
O125        O  0.44018507  0.13814447  0.14877431    -0.56500
O126        O  0.37412583  0.20157436  0.20183707    -0.55700
C127        C  0.24787769  0.99971969  0.25332792     0.81100
N128        N  0.26786645  0.03455821  0.23756392    -0.77200
C129        C  0.30773071  0.03534643  0.23791263     0.83600
N130        N  0.32762479  0.00184134  0.25474673    -0.77100
C131        C  0.30816426  0.96711673  0.27069910     0.83700
N132        N  0.26833640  0.96566079  0.26951639    -0.78800
N133        N  0.64742399  0.97418049  0.47116753    -0.35700
N134        N  0.64800662  0.02994170  0.03079932    -0.56300
N135        N  0.56272887  0.02668946  0.03191702    -0.35700
N136        N  0.56178518  0.97568822  0.47199492    -0.56300
C137        C  0.68433722  0.99161887  0.47098289     0.27900
C138        C  0.63864691  0.96231326  0.43992258     0.27900
C139        C  0.57088186  0.06046667  0.05402575     0.27900
C140        C  0.52552775  0.03427401  0.02157898     0.27900
C141        C  0.68632786  0.01764601  0.02881536     0.36500
C142        C  0.64115023  0.04302640  0.06218195     0.36500
C143        C  0.56904866  0.94234406  0.44925932     0.36500
C144        C  0.52426490  0.96965447  0.48197123     0.36500
C145        C  0.69896269  0.99116249  0.43912695    -0.21000
C146        C  0.67017451  0.97240989  0.41956573    -0.21000
C147        C  0.53885931  0.09053576  0.05742856    -0.21000
C148        C  0.51031206  0.07428497  0.03658092    -0.21000
C149        C  0.70390182  0.02270338  0.05921871    -0.22000
C150        C  0.67520045  0.03875612  0.08040204    -0.22000
C151        C  0.53617418  0.91441726  0.44497085    -0.22000
C152        C  0.50788368  0.93132285  0.46615510    -0.22000
C153        C  0.70561684  0.00514919  0.99921348    -0.17400
C154        C  0.60338107  0.94089835  0.42988828    -0.17400
C155        C  0.50410320  0.00235979  0.00206927    -0.17400
C156        C  0.60492373  0.06136228  0.07350290    -0.17400
H157        H  0.72731303  0.00332649  0.43065215     0.15500
H158        H  0.67219446  0.96710448  0.39334012     0.15500
H159        H  0.53613303  0.12054782  0.07367118     0.15500
H160        H  0.48118310  0.08912412  0.03378711     0.15500
H161        H  0.73411567  0.01543201  0.06563676     0.13800
H162        H  0.67913122  0.04650462  0.10613696     0.13800
H163        H  0.53277908  0.88541274  0.42802014     0.13800
H164        H  0.47828092  0.91805743  0.46867580     0.13800
H165        H  0.63065551  0.96634561  0.49188403     0.27100
H166        H  0.57956579  0.99642168  0.02797223     0.27100
N167        N  0.31573176  0.98273638  0.47367223    -0.35700
N168        N  0.31695967  0.01458628  0.04066582    -0.56300
N169        N  0.40238239  0.01891652  0.03755188    -0.35700
N170        N  0.40111894  0.98816257  0.47132887    -0.56300
C171        C  0.27903027  0.97095228  0.48380152     0.27900
C172        C  0.32495935  0.95545536  0.44735022     0.27900
C173        C  0.39536795  0.02009184  0.07007990     0.27900
C174        C  0.43966114  0.00332987  0.03315295     0.27900
C175        C  0.27747792  0.01506607  0.03653491     0.36500
C176        C  0.32414595  0.03655917  0.06950117     0.36500
C177        C  0.39281379  0.98379404  0.43926480     0.36500
C178        C  0.43840960  0.00373297  0.47326514     0.36500
C179        C  0.26519110  0.93527724  0.46354296    -0.21000
C180        C  0.29379560  0.92601574  0.44057775    -0.21000
C181        C  0.42836399  0.00412925  0.08666256    -0.21000
C182        C  0.45613476  0.99286636  0.06326444    -0.21000
C183        C  0.25979323  0.03532004  0.06403965    -0.22000
C184        C  0.28918406  0.04944595  0.08441534    -0.22000
C185        C  0.42496095  0.99770385  0.42055697    -0.22000
C186        C  0.45359891  0.01122442  0.44218230    -0.22000
C187        C  0.25762376  0.99400841  0.00952532    -0.17400
C188        C  0.35952419  0.95945145  0.42796188    -0.17400
C189        C  0.45985532  0.00361374  0.00276917    -0.17400
C190        C  0.36141157  0.04027996  0.08436764    -0.17400
H191        H  0.23813148  0.91587596  0.46497077     0.15500
H192        H  0.29129338  0.90049675  0.42105166     0.15500
H193        H  0.43239723  0.00053296  0.11278056     0.15500
H194        H  0.48551499  0.97993582  0.06799158     0.15500
H195        H  0.22916454  0.03762964  0.07067798     0.13800
H196        H  0.28482734  0.06446953  0.10853746     0.13800
H197        H  0.42832017  0.99710719  0.39422606     0.13800
H198        H  0.48292312  0.02262913  0.43574097     0.13800
H199        H  0.33183405  0.01146755  0.48192616     0.27100
H200        H  0.38461146  0.03455341  0.01984443     0.27100
O201        O  0.52380207  0.88363638  0.30657120    -0.56900
C202        C  0.63253948  0.93676027  0.28975382     0.75700
O203        O  0.62500133  0.88963090  0.38617854    -0.58100
C204        C  0.50408593  0.87712167  0.33261131     0.75700
C205        C  0.60096178  0.77616728  0.32763505     0.78100
Cd206      Cd  0.58878449  0.87644247  0.33413042     1.37500
O207        O  0.59569864  0.93943942  0.29319129    -0.56900
O208        O  0.58819324  0.80075029  0.30413827    -0.55700
C209        C  0.60060543  0.91988815  0.39685772     0.78000
O210        O  0.61109286  0.79815569  0.35314786    -0.58100
O211        O  0.64978044  0.90514774  0.30618772    -0.56500
O212        O  0.52333844  0.86952120  0.35846450    -0.56500
O213        O  0.57267720  0.93096821  0.37809003    -0.55700
O214        O  0.52326012  0.11437900  0.19720851    -0.56900
C215        C  0.63037468  0.06879310  0.21341710     0.75700
O216        O  0.62603948  0.11018928  0.11838167    -0.58100
C217        C  0.50273305  0.12700402  0.17292238     0.75700
C218        C  0.59924122  0.22612866  0.17300880     0.78100
Cd219      Cd  0.58684637  0.12657922  0.16875521     1.37500
O220        O  0.59344402  0.06635897  0.21140058    -0.56900
O221        O  0.58701453  0.20320949  0.19755441    -0.55700
C222        C  0.60111163  0.08203033  0.10662691     0.78000
O223        O  0.60866755  0.20266182  0.14785882    -0.58100
O224        O  0.64721903  0.09924767  0.19574221    -0.56500
O225        O  0.52102064  0.13954487  0.14734873    -0.56500
O226        O  0.57135386  0.07332272  0.12421596    -0.55700
C227        C  0.71307434  0.00034871  0.24681512     0.81100
N228        N  0.69235905  0.03555173  0.23238501    -0.77200
C229        C  0.65260346  0.03655495  0.23424232     0.83600
N230        N  0.63343862  0.00384639  0.25239532    -0.77100
C231        C  0.65375409  0.96956651  0.26816558     0.83700
N232        N  0.69347867  0.96725832  0.26474738    -0.78800
O233        O  0.51982419  0.61738355  0.30421016    -0.56900
C234        C  0.63146102  0.57019682  0.28446247     0.75700
O235        O  0.61128662  0.70009499  0.35080185    -0.58100
C236        C  0.50117580  0.62676564  0.33035890     0.75700
C237        C  0.59867669  0.57067313  0.38783178     0.78100
Cd238      Cd  0.58575355  0.62498800  0.32972655     1.37500
O239        O  0.59445707  0.57302349  0.28264192    -0.56900
O240        O  0.58328022  0.55313224  0.36253633    -0.55700
C241        C  0.60057450  0.72456247  0.32652773     0.78000
O242        O  0.61049718  0.61278599  0.38567403    -0.58100
O243        O  0.64799888  0.59599790  0.30554130    -0.56500
O244        O  0.52140677  0.63505048  0.35552959    -0.56500
O245        O  0.58655032  0.70252013  0.30234797    -0.55700
O246        O  0.52331430  0.38863854  0.19571751    -0.56900
C247        C  0.63087741  0.43720171  0.20924613     0.75700
O248        O  0.60848054  0.29964069  0.14665467    -0.58100
C249        C  0.50226502  0.37726079  0.17146904     0.75700
C250        C  0.59962906  0.41637288  0.10149610     0.78100
Cd251      Cd  0.58673107  0.37710879  0.16582832     1.37500
O252        O  0.59458632  0.44309359  0.20423526    -0.56900
O253        O  0.56867875  0.42346727  0.11803966    -0.55700
C254        C  0.59921641  0.27754758  0.17238281     0.78000
O255        O  0.62628205  0.39227916  0.11516750    -0.58100
O256        O  0.64715052  0.40305897  0.19451878    -0.56500
O257        O  0.52014026  0.36581911  0.14540869    -0.56500
O258        O  0.58709547  0.30182775  0.19639565    -0.55700
C259        C  0.71280475  0.49660738  0.25201218     0.81100
N260        N  0.69217009  0.46411482  0.23465895    -0.77200
C261        C  0.65275466  0.46904247  0.23074666     0.83600
N262        N  0.63363348  0.50521522  0.24563427    -0.77100
C263        C  0.65353267  0.53656541  0.26421380     0.83700
N264        N  0.69313604  0.53258400  0.26699871    -0.78800
N265        N  0.14813736  0.47303957  0.22756719    -0.35700
N266        N  0.14650991  0.52540307  0.28847420    -0.56300
N267        N  0.06008093  0.52345520  0.28871035    -0.35700
N268        N  0.06231866  0.47237895  0.22786875    -0.56300
C269        C  0.18485932  0.49087935  0.22770357     0.27900
C270        C  0.13984323  0.46092029  0.19625444     0.27900
C271        C  0.06676297  0.53387616  0.32049910     0.27900
C272        C  0.02174822  0.51121772  0.28622262     0.27900
C273        C  0.18593051  0.52001156  0.28526117     0.36500
C274        C  0.13989146  0.54289764  0.31888592     0.36500
C275        C  0.07167511  0.43756383  0.20680550     0.36500
C276        C  0.02538483  0.46374480  0.23811885     0.36500
C277        C  0.20003211  0.49009083  0.19601172    -0.21000
C278        C  0.17156118  0.47121935  0.17614999    -0.21000
C279        C  0.03229073  0.52753308  0.33838521    -0.21000
C280        C  0.00442310  0.51185690  0.31696473    -0.21000
C281        C  0.20409768  0.53300131  0.31429297    -0.22000
C282        C  0.17511147  0.54832554  0.33518459    -0.22000
C283        C  0.04127753  0.40545934  0.20465058    -0.22000
C284        C  0.01223218  0.42137123  0.22545166    -0.22000
C285        C  0.20549883  0.50580026  0.25592249    -0.17400
C286        C  0.10480936  0.43893950  0.18624761    -0.17400
C287        C  0.00325687  0.49572026  0.25718962    -0.17400
C288        C  0.10266424  0.55007427  0.33368293    -0.17400
H289        H  0.22852305  0.50230385  0.18788086     0.15500
H290        H  0.17405207  0.46585324  0.14996482     0.15500
H291        H  0.02737166  0.53197846  0.36436016     0.15500
H292        H  0.97505535  0.50089489  0.32361461     0.15500
H293        H  0.23480965  0.53100539  0.32061033     0.13800
H294        H  0.17939865  0.55981735  0.36020733     0.13800
H295        H  0.03999101  0.37445005  0.18925295     0.13800
H296        H  0.98398607  0.40501099  0.22957285     0.13800
H297        H  0.13106528  0.46524350  0.24811790     0.27100
H298        H  0.07945220  0.52891709  0.26929129     0.27100
N299        N  0.81606167  0.47453776  0.21977306    -0.35700
N300        N  0.90202628  0.48228779  0.21817153    -0.56300
N301        N  0.89997955  0.52397169  0.28218115    -0.35700
N302        N  0.81408428  0.52375237  0.28216350    -0.56300
C303        C  0.82323915  0.46388469  0.18789935     0.27900
C304        C  0.77707713  0.48408400  0.22263383     0.27900
C305        C  0.93678544  0.53338034  0.27157807     0.27900
C306        C  0.89003733  0.55861962  0.30338711     0.27900
C307        C  0.89660124  0.46775250  0.18700993     0.36500
C308        C  0.94109063  0.48960596  0.22150471     0.36500
C309        C  0.77647602  0.50891952  0.28123735     0.36500
C310        C  0.82098212  0.53766696  0.31330173     0.36500
C311        C  0.78859575  0.46616464  0.17039685    -0.21000
C312        C  0.75970563  0.47971961  0.19202789    -0.21000
C313        C  0.94937540  0.57581232  0.28451905    -0.21000
C314        C  0.92012203  0.59125546  0.30528084    -0.21000
C315        C  0.93210092  0.46828035  0.17011390    -0.22000
C316        C  0.95972230  0.48413917  0.19150511    -0.22000
C317        C  0.75953976  0.51302862  0.31218277    -0.22000
C318        C  0.78777811  0.53139006  0.33249052    -0.22000
C319        C  0.86021717  0.45443495  0.17331129    -0.17400
C320        C  0.75669929  0.49548228  0.25220278    -0.17400
C321        C  0.85631164  0.55866058  0.32348051    -0.17400
C322        C  0.95926658  0.50350030  0.25112071    -0.17400
H323        H  0.78481637  0.46081388  0.14433338     0.15500
H324        H  0.72958915  0.48675115  0.18531390     0.15500
H325        H  0.97715527  0.59311505  0.28008390     0.15500
H326        H  0.92096017  0.62269109  0.32028431     0.15500
H327        H  0.93791236  0.45971128  0.14475368     0.13800
H328        H  0.98993552  0.49160129  0.18518919     0.13800
H329        H  0.72991967  0.50395325  0.31945253     0.13800
H330        H  0.78414347  0.53944633  0.35826075     0.13800
H331        H  0.83601293  0.47176859  0.23885390     0.27100
H332        H  0.88474296  0.49263338  0.27848451     0.27100
O333        O  0.93779029  0.61905869  0.44619167    -0.56900
C334        C  0.82955992  0.57242977  0.46278315     0.75700
O335        O  0.85218496  0.70550128  0.39587910    -0.58100
C336        C  0.95888362  0.62875774  0.42144045     0.75700
C337        C  0.85979757  0.58120447  0.35607040     0.78100
Cd338      Cd  0.87409406  0.62894001  0.41729055     1.37500
O339        O  0.86645700  0.56918873  0.46012308    -0.56900
O340        O  0.88947677  0.57323346  0.37372374    -0.55700
C341        C  0.86201184  0.72917606  0.42071755     0.78000
O342        O  0.83497696  0.61062017  0.36709353    -0.58100
O343        O  0.81293059  0.60370281  0.44564708    -0.56500
O344        O  0.94097570  0.63847169  0.39519403    -0.56500
O345        O  0.87457418  0.70632717  0.44510781    -0.55700
O346        O  0.94002588  0.39157688  0.05600193    -0.56900
C347        C  0.82873461  0.43704544  0.03580588     0.75700
O348        O  0.84627099  0.30309491  0.09750679    -0.58100
C349        C  0.95848676  0.37973342  0.08159162     0.75700
C350        C  0.86109752  0.43061110  0.14102808     0.78100
Cd351      Cd  0.87357943  0.38034554  0.08070132     1.37500
O352        O  0.86583500  0.43748476  0.03650311    -0.56900
O353        O  0.87672219  0.44957432  0.11622815    -0.55700
C354        C  0.86097279  0.28020638  0.07375934     0.78000
O355        O  0.84812513  0.38921039  0.13736857    -0.58100
O356        O  0.81174603  0.40763618  0.05432680    -0.56500
O357        O  0.93794607  0.36798773  0.10611481    -0.56500
O358        O  0.87791119  0.30402508  0.05166528    -0.55700
C359        C  0.74711749  0.50516288  0.99866825     0.81100
N360        N  0.76712770  0.47040494  0.01455760    -0.77200
C361        C  0.80698522  0.47069799  0.01543896     0.83600
N362        N  0.82692048  0.50517137  0.99963824    -0.77100
C363        C  0.80741210  0.53988575  0.48366949     0.83700
N364        N  0.76751881  0.54043903  0.48389664    -0.78800
O365        O  0.93615890  0.88727325  0.44546430    -0.56900
C366        C  0.83066844  0.94519722  0.45445949     0.75700
O367        O  0.83492107  0.89158073  0.36274985    -0.58100
C368        C  0.95824484  0.88061597  0.42077084     0.75700
C369        C  0.86201584  0.78067009  0.42004148     0.78100
Cd370      Cd  0.87430973  0.88027798  0.41334405     1.37500
O371        O  0.86620159  0.95183907  0.44682846    -0.56900
O372        O  0.87539723  0.80475690  0.44348882    -0.55700
C373        C  0.86173018  0.91357541  0.34764730     0.78000
O374        O  0.85135630  0.80300311  0.39484762    -0.58100
O375        O  0.81497439  0.90820947  0.44344250    -0.56500
O376        O  0.94156379  0.87396339  0.39358802    -0.56500
O377        O  0.89297435  0.92117729  0.36332664    -0.55700
O378        O  0.86825693  0.07836363  0.02937728    -0.56900
C379        C  0.96134039  0.12836299  0.07966901     0.75700
O380        O  0.84849685  0.20434121  0.09701905    -0.58100
C381        C  0.83113913  0.07719529  0.03059744     0.75700
C382        C  0.86180398  0.07149625  0.13541529     0.78100
Cd383      Cd  0.87639238  0.12809937  0.07789804     1.37500
O384        O  0.94327940  0.11780749  0.05365681    -0.56900
O385        O  0.87718372  0.05465847  0.10967133    -0.55700
C386        C  0.86179952  0.22841738  0.07337232     0.78000
O387        O  0.85057817  0.11407475  0.13406369    -0.58100
O388        O  0.94041743  0.13842969  0.10439731    -0.56500
O389        O  0.81455260  0.10245755  0.05222256    -0.56500
O390        O  0.87883872  0.20582590  0.05062020    -0.55700
C391        C  0.74926031  0.00746772  0.49712214     0.81100
N392        N  0.76956105  0.97502309  0.47913306    -0.77200
C393        C  0.80898353  0.97895041  0.47499725     0.83600
N394        N  0.82843910  0.01447284  0.48994509    -0.77100
C395        C  0.80881807  0.04580960  0.00918350     0.83700
N396        N  0.76916156  0.04267778  0.01229803    -0.78800
N397        N  0.14456223  0.97830767  0.28534750    -0.35700
N398        N  0.14658378  0.02864993  0.22354101    -0.56300
N399        N  0.06060908  0.02317634  0.22120777    -0.35700
N400        N  0.05834728  0.98049849  0.28487474    -0.56300
C401        C  0.18356472  0.98741331  0.28278175     0.27900
C402        C  0.13714045  0.96616496  0.31689895     0.27900
C403        C  0.06955093  0.05909516  0.20086160     0.27900
C404        C  0.02290109  0.02968821  0.23069866     0.27900
C405        C  0.18429625  0.01380422  0.22454382     0.36500
C406        C  0.13966177  0.04190091  0.19228337     0.36500
C407        C  0.06349274  0.96780172  0.31646052     0.36500
C408        C  0.01914574  0.98562549  0.28053125     0.36500
C409        C  0.20085449  0.98110915  0.31324601    -0.21000
C410        C  0.17177956  0.96705874  0.33450694    -0.21000
C411        C  0.03780655  0.08968576  0.19845776    -0.21000
C412        C  0.00852848  0.07156942  0.21795567    -0.21000
C413        C  0.20124851  0.01742011  0.19359398    -0.22000
C414        C  0.17296325  0.03545671  0.17318473    -0.22000
C415        C  0.02746886  0.96725599  0.33258335    -0.22000
C416        C  0.99980435  0.98043728  0.31022089    -0.22000
C417        C  0.20399924  0.99976116  0.25347482    -0.17400
C418        C  0.09997581  0.95629602  0.33104279    -0.17400
C419        C  0.00144052  0.99802146  0.25035779    -0.17400
C420        C  0.10393443  0.06162515  0.18166468    -0.17400
H421        H  0.23107914  0.98693535  0.32003805     0.15500
H422        H  0.17550912  0.96013165  0.36039297     0.15500
H423        H  0.03588990  0.12148700  0.18391705     0.15500
H424        H  0.97969965  0.08690204  0.22180676     0.15500
H425        H  0.23076838  0.00768188  0.18624433     0.13800
H426        H  0.17649874  0.04250077  0.14727939     0.13800
H427        H  0.02128707  0.95963465  0.35801245     0.13800
H428        H  0.96907958  0.98651648  0.31567461     0.13800
H429        H  0.12478748  0.97679791  0.26613080     0.27100
H430        H  0.07739379  0.99282856  0.22497664     0.27100
N431        N  0.81408378  0.96393326  0.27177647    -0.35700
N432        N  0.81555936  0.01744418  0.21093815    -0.56300
N433        N  0.90145890  0.01523651  0.21121417    -0.35700
N434        N  0.89919775  0.96188649  0.27103839    -0.56300
C435        C  0.77795216  0.98380389  0.27195715     0.27900
C436        C  0.82274895  0.95284167  0.30324046     0.27900
C437        C  0.89519692  0.02675580  0.17951201     0.27900
C438        C  0.93985107  0.00303727  0.21398565     0.27900
C439        C  0.77611092  0.01306494  0.21449559     0.36500
C440        C  0.82210956  0.03666000  0.18101284     0.36500
C441        C  0.89070196  0.92798974  0.29293488     0.36500
C442        C  0.93678235  0.95480779  0.26186316     0.36500
C443        C  0.76371538  0.98563406  0.30391734    -0.21000
C444        C  0.79198455  0.96605235  0.32364673    -0.21000
C445        C  0.93003923  0.02096647  0.16194742    -0.21000
C446        C  0.95775893  0.00479137  0.18350393    -0.20200
C447        C  0.75774525  0.02837227  0.18604911    -0.22000
C448        C  0.78672473  0.04406819  0.16525667    -0.22000
C449        C  0.92232898  0.89752830  0.29646562    -0.22000
C450        C  0.95135068  0.91386382  0.27589836    -0.22000
C451        C  0.75685865  0.99849246  0.24392957    -0.17400
C452        C  0.85749503  0.93002616  0.31341434    -0.17400
C453        C  0.95818378  0.98768083  0.24318790    -0.17400
C454        C  0.85944161  0.04399423  0.16631604    -0.17400
H455        H  0.73604853  0.00029486  0.31234519     0.15500
H456        H  0.79011042  0.96256593  0.35000742     0.15500
H457        H  0.93536465  0.02648837  0.13613317     0.15500
H458        H  0.98755136  0.99469267  0.17721968     0.15500
H459        H  0.72685568  0.02812379  0.18020508     0.13800
H460        H  0.78228133  0.05745497  0.14071022     0.13800
H461        H  0.92461273  0.86773548  0.31290062     0.13800
H462        H  0.98049992  0.89898893  0.27301129     0.13800
H463        H  0.83038270  0.95453632  0.25104669     0.27100
H464        H  0.88190305  0.02034111  0.23058618     0.27100
O465        O  0.02064744  0.61950103  0.44874735    -0.56900
C466        C  0.13162143  0.57414658  0.46990478     0.75700
O467        O  0.11229951  0.61809375  0.36743290    -0.58100
C468        C  0.00201144  0.62877421  0.42275994     0.75700
C469        C  0.10028158  0.72926259  0.42846192     0.78100
Cd470      Cd  0.08708342  0.62908196  0.42378155     1.37500
O471        O  0.09453856  0.57632847  0.47066971    -0.56900
O472        O  0.08435059  0.70625730  0.45145346    -0.55700
C473        C  0.10080401  0.57585854  0.36514992     0.78000
O474        O  0.11373325  0.70558473  0.40459510    -0.58100
O475        O  0.14886479  0.60042256  0.44935414    -0.56500
O476        O  0.02243260  0.63813317  0.39766712    -0.56500
O477        O  0.08593461  0.55772529  0.39056832    -0.55700
O478        O  0.09346017  0.44669382  0.05063139    -0.56900
C479        C  0.00155326  0.37977015  0.08327814     0.75700
O480        O  0.10839813  0.30358048  0.10891170    -0.58100
C481        C  0.12951081  0.44016280  0.04460048     0.75700
C482        C  0.10044880  0.42036925  0.15259754     0.78100
Cd483      Cd  0.08609867  0.38044220  0.08894848     1.37500
O484        O  0.02297186  0.39294635  0.05954233    -0.56900
O485        O  0.06930936  0.42787023  0.13667582    -0.55700
C486        C  0.09988886  0.28092628  0.08330523     0.78000
O487        O  0.12659514  0.39571338  0.13852501    -0.58100
O488        O  0.01906732  0.36680359  0.10900764    -0.56500
O489        O  0.14568307  0.40539320  0.05850741    -0.56500
O490        O  0.08783191  0.30464422  0.05911430    -0.55700
C491        C  0.21217383  0.50175989  0.00440359     0.81100
N492        N  0.19106982  0.46810918  0.02025905    -0.77200
C493        C  0.15147314  0.47216599  0.02317621     0.83600
N494        N  0.13257176  0.50833077  0.00822671    -0.77100
C495        C  0.15301044  0.54071157  0.49073066     0.83700
N496        N  0.19282886  0.53794409  0.48948518    -0.78800
O497        O  0.01941709  0.88831972  0.44919141    -0.56900
C498        C  0.13029730  0.93487322  0.46930364     0.75700
O499        O  0.11226806  0.80435974  0.40394021    -0.58100
C500        C  0.00117502  0.88064212  0.42277724     0.75700
C501        C  0.09885613  0.93251021  0.36335058     0.78100
Cd502      Cd  0.08577708  0.88115665  0.42315189     1.37500
O503        O  0.09328652  0.93743894  0.46783432    -0.56900
O504        O  0.08207250  0.95101473  0.38791083    -0.55700
C505        C  0.09973901  0.78099325  0.42820931     0.78000
O506        O  0.11268642  0.89138633  0.36716799    -0.58100
O507        O  0.14705507  0.90529380  0.45061734    -0.56500
O508        O  0.02182221  0.87304030  0.39750428    -0.56500
O509        O  0.08376500  0.80423682  0.45118005    -0.55700
O510        O  0.09577341  0.06797891  0.04551037    -0.56900
C511        C  0.00437909  0.12896597  0.08148091     0.75700
O512        O  0.12672808  0.11136521  0.13755115    -0.58100
C513        C  0.13269850  0.06957337  0.04281688     0.75700
C514        C  0.10061422  0.22945164  0.08293052     0.78100
Cd515      Cd  0.08876759  0.12948543  0.08698536     1.37500
O516        O  0.02607267  0.11937896  0.05701746    -0.56900
O517        O  0.08953746  0.20614468  0.05828782    -0.55700
C518        C  0.10079999  0.08406108  0.14905988     0.78000
O519        O  0.10943820  0.20626140  0.10827036    -0.58100
O520        O  0.02158070  0.13911563  0.10793746    -0.56500
O521        O  0.15000257  0.10055791  0.05961376    -0.56500
O522        O  0.07090452  0.07729168  0.13151441    -0.55700
C523        C  0.21339335  0.99692805  0.00799356     0.81100
N524        N  0.19216947  0.96360792  0.49211026    -0.77200
C525        C  0.15243367  0.96639102  0.49065331     0.83600
N526        N  0.13340161  0.00186075  0.00632396    -0.77100
C527        C  0.15391419  0.03561024  0.02212087     0.83700
N528        N  0.19378735  0.03410718  0.02163257    -0.78800
N529        N  0.64620378  0.46982478  0.52580931    -0.35700
N530        N  0.56087488  0.46787898  0.52619989    -0.56300
N531        N  0.55869074  0.51774439  0.96468216    -0.35700
N532        N  0.64456191  0.52116586  0.96426941    -0.56300
C533        C  0.63800129  0.45782050  0.55725850     0.27900
C534        C  0.68259440  0.48866084  0.52535524     0.27900
C535        C  0.52038148  0.50584252  0.96781758     0.27900
C536        C  0.56500444  0.52833004  0.93281806     0.27900
C537        C  0.56991678  0.43365572  0.54772392     0.36500
C538        C  0.52373480  0.45976039  0.51663249     0.36500
C539        C  0.68397597  0.51648672  0.96746455     0.36500
C540        C  0.63802256  0.53778828  0.93368616     0.36500
C541        C  0.66938141  0.46932682  0.57710616    -0.21000
C542        C  0.69753969  0.48880097  0.55698461    -0.21000
C543        C  0.50258938  0.50683861  0.93742873    -0.21000
C544        C  0.53027585  0.52235326  0.91552980    -0.21000
C545        C  0.53904664  0.40230006  0.55082863    -0.22000
C546        C  0.51001838  0.41819931  0.53025569    -0.22000
C547        C  0.70232302  0.52901771  0.93826243    -0.22000
C548        C  0.67334611  0.54325253  0.91720244    -0.22000
C549        C  0.60333611  0.43506589  0.56771718    -0.17400
C550        C  0.70333403  0.50339678  0.49691984    -0.17400
C551        C  0.60077437  0.54458471  0.91914915    -0.17400
C552        C  0.50201820  0.49157133  0.99731897    -0.17400
H553        H  0.67182675  0.46441884  0.60331046     0.15500
H554        H  0.72572620  0.50192421  0.56489952     0.15500
H555        H  0.47291509  0.49663596  0.93140600     0.15500
H556        H  0.52500688  0.52720958  0.88968875     0.15500
H557        H  0.53741269  0.37183400  0.56670768     0.13800
H558        H  0.48148826  0.40233835  0.52683686     0.13800
H559        H  0.73319964  0.52757459  0.93210120     0.13800
H560        H  0.67772784  0.55427425  0.89205583     0.13800
H561        H  0.62944183  0.46126453  0.50538092     0.27100
H562        H  0.57813194  0.52323248  0.98385278     0.27100
N563        N  0.31492660  0.47721972  0.53647303    -0.35700
N564        N  0.31395790  0.52962557  0.97504422    -0.56300
N565        N  0.39975394  0.52549458  0.97389345    -0.35700
N566        N  0.40094325  0.48109313  0.53715693    -0.56300
C567        C  0.27586554  0.48609739  0.53373642     0.27900
C568        C  0.32168145  0.46307043  0.56770157     0.27900
C569        C  0.39102211  0.56096811  0.95309264     0.27900
C570        C  0.43694264  0.53265681  0.98405185     0.27900
C571        C  0.27620776  0.51527907  0.97591544     0.36500
C572        C  0.32130326  0.54357772  0.94392056     0.36500
C573        C  0.39511661  0.46764920  0.56850523     0.36500
C574        C  0.44001169  0.48812152  0.53366405     0.36500
C575        C  0.25788784  0.47748538  0.56383666    -0.21000
C576        C  0.28655481  0.46217483  0.58489971    -0.21000
C577        C  0.42233291  0.59189162  0.95099877    -0.21000
C578        C  0.45110564  0.57450210  0.97121773    -0.21000
C579        C  0.25963001  0.52006110  0.94504004    -0.22000
C580        C  0.28820223  0.53811444  0.92480385    -0.22000
C581        C  0.43045727  0.46859943  0.58534275    -0.22000
C582        C  0.45839439  0.48346846  0.56364069    -0.22000
C583        C  0.25604428  0.50047813  0.50462820    -0.17400
C584        C  0.35867986  0.45381871  0.58215233    -0.17400
C585        C  0.45839829  0.50118759  0.00390534    -0.17400
C586        C  0.35723708  0.56298303  0.93342343    -0.17400
H587        H  0.22750513  0.48277664  0.57072308     0.15500
H588        H  0.28224154  0.45364828  0.61052251     0.15500
H589        H  0.42430442  0.62342610  0.93619131     0.15500
H590        H  0.47958672  0.59012389  0.97534845     0.15500
H591        H  0.23017413  0.51096766  0.93760495     0.13800
H592        H  0.28494077  0.54584590  0.89899834     0.13800
H593        H  0.43600729  0.46074750  0.61079262     0.13800
H594        H  0.48864478  0.49077499  0.56966773     0.13800
H595        H  0.33533899  0.47764855  0.51752582     0.27100
H596        H  0.38342101  0.49491067  0.97744888     0.27100
O597        O  0.43701645  0.61738062  0.80769300    -0.56900
C598        C  0.33141727  0.57016846  0.79264427     0.75700
O599        O  0.33553689  0.61207566  0.88856701    -0.58100
C600        C  0.45825972  0.62787888  0.83198995     0.75700
C601        C  0.36205046  0.72922369  0.83294740     0.78100
Cd602      Cd  0.37423801  0.62884234  0.83777246     1.37500
O603        O  0.36778930  0.56503756  0.79739727    -0.56900
O604        O  0.37673178  0.70563260  0.80959288    -0.55700
C605        C  0.36118666  0.58476472  0.90057497     0.78000
O606        O  0.35018280  0.70622167  0.85755175    -0.58100
O607        O  0.31461771  0.60337183  0.80802087    -0.56500
O608        O  0.44071520  0.63923116  0.85825606    -0.56500
O609        O  0.39146395  0.57732358  0.88326028    -0.55700
O610        O  0.44023170  0.38604395  0.69896287    -0.56900
C611        C  0.33028652  0.43503448  0.71857941     0.75700
O612        O  0.34854567  0.38688134  0.61702564    -0.58100
C613        C  0.45920713  0.37737916  0.67288055     0.75700
C614        C  0.36036107  0.27699482  0.67833710     0.78100
Cd615      Cd  0.37424402  0.37743703  0.67338528     1.37500
O616        O  0.36738870  0.43352555  0.71853777    -0.56900
O617        O  0.37406589  0.30023735  0.70211691    -0.55700
C618        C  0.35987224  0.42908857  0.61405928     0.78000
O619        O  0.34933546  0.30055587  0.65372546    -0.58100
O620        O  0.31293648  0.40692478  0.69944469    -0.56500
O621        O  0.43917589  0.36877485  0.64763103    -0.56500
O622        O  0.37481526  0.44794037  0.63907010    -0.55700
C623        C  0.24930952  0.50644152  0.75418557     0.81100
N624        N  0.27007175  0.54079087  0.76942598    -0.77200
C625        C  0.30980065  0.53810359  0.77117283     0.83600
N626        N  0.32909567  0.50249124  0.75568962    -0.77100
C627        C  0.30885709  0.46934936  0.73887012     0.83700
N628        N  0.26899837  0.47100022  0.73859579    -0.78800
O629        O  0.44068458  0.88533271  0.80800809    -0.56900
C630        C  0.33035840  0.93489493  0.79180728     0.75700
O631        O  0.34911232  0.80472262  0.85661794    -0.58100
C632        C  0.46104261  0.87856456  0.83342671     0.75700
C633        C  0.36310076  0.93289824  0.89672349     0.78100
Cd634      Cd  0.37631727  0.88045985  0.83708266     1.37500
O635        O  0.36741388  0.93660604  0.79271735    -0.56900
O636        O  0.37509982  0.95222522  0.87067838    -0.55700
C637        C  0.36212633  0.78083355  0.83268154     0.78000
O638        O  0.35591194  0.88924073  0.89499926    -0.58100
O639        O  0.31383997  0.90551806  0.81066501    -0.56500
O640        O  0.44243918  0.87327175  0.86004024    -0.56500
O641        O  0.37809291  0.80346517  0.80955179    -0.55700
O642        O  0.44055247  0.11492609  0.69912870    -0.56900
C643        C  0.32975589  0.06876726  0.71757055     0.75700
O644        O  0.35111307  0.20196155  0.65281304    -0.58100
C645        C  0.45978762  0.12676668  0.67379998     0.75700
C646        C  0.36532481  0.06844564  0.61487964     0.78100
Cd647      Cd  0.37559939  0.12469248  0.67293598     1.37500
O648        O  0.36680109  0.07070049  0.71894130    -0.56900
O649        O  0.38740398  0.05579075  0.63802603    -0.55700
C650        C  0.36083682  0.22513163  0.67799413     0.78000
O651        O  0.34752250  0.10744992  0.61866343    -0.58100
O652        O  0.31314110  0.09552434  0.69702133    -0.56500
O653        O  0.44019352  0.13813049  0.64877254    -0.56500
O654        O  0.37411414  0.20157072  0.70183297    -0.55700
C655        C  0.24789409  0.99972490  0.75333816     0.81100
N656        N  0.26788237  0.03455967  0.73756930    -0.77200
C657        C  0.30774692  0.03535157  0.73791948     0.83600
N658        N  0.32764192  0.00185768  0.75476412    -0.77100
C659        C  0.30818198  0.96713767  0.77072237     0.83700
N660        N  0.26835443  0.96567541  0.76953502    -0.78800
N661        N  0.64743480  0.97415802  0.97116799    -0.35700
N662        N  0.64799470  0.02995252  0.53080299    -0.56300
N663        N  0.56271445  0.02670901  0.53191404    -0.35700
N664        N  0.56179479  0.97565692  0.97200456    -0.56300
C665        C  0.68434904  0.99159421  0.97098089     0.27900
C666        C  0.63865535  0.96228608  0.93992436     0.27900
C667        C  0.57086567  0.06047564  0.55403133     0.27900
C668        C  0.52551358  0.03429685  0.52157529     0.27900
C669        C  0.68631617  0.01765687  0.52881958     0.36500
C670        C  0.64113634  0.04303184  0.56218613     0.36500
C671        C  0.56905517  0.94231858  0.94926426     0.36500
C672        C  0.52427449  0.96962436  0.98198163     0.36500
C673        C  0.69897382  0.99112885  0.93912469    -0.21000
C674        C  0.67018348  0.97237556  0.91956597    -0.21000
C675        C  0.53884104  0.09054036  0.55744078    -0.21000
C676        C  0.51029570  0.07429915  0.53658725    -0.21000
C677        C  0.70388877  0.02270918  0.55922378    -0.22000
C678        C  0.67518572  0.03875792  0.58040739    -0.22000
C679        C  0.53617839  0.91439607  0.94497355    -0.22000
C680        C  0.50788989  0.93129865  0.96616105    -0.22000
C681        C  0.70560552  0.00516216  0.49921748    -0.17400
C682        C  0.60338687  0.94087440  0.92989178    -0.17400
C683        C  0.50409104  0.00239083  0.50205582    -0.17400
C684        C  0.60490986  0.06136843  0.57350688    -0.17400
H685        H  0.72732385  0.00328991  0.93064739     0.15500
H686        H  0.67220223  0.96706631  0.89334066     0.15500
H687        H  0.53611261  0.12054447  0.57369037     0.15500
H688        H  0.48116649  0.08913876  0.53379587     0.15500
H689        H  0.73410272  0.01543800  0.56564165     0.13800
H690        H  0.67911480  0.04650279  0.60614312     0.13800
H691        H  0.53278018  0.88539655  0.92801906     0.13800
H692        H  0.47828604  0.91803616  0.96868034     0.13800
H693        H  0.63066606  0.96633047  0.99188563     0.27100
H694        H  0.57955340  0.99644496  0.52796210     0.27100
N695        N  0.31574430  0.98274439  0.97367770    -0.35700
N696        N  0.31694517  0.01457791  0.54065957    -0.56300
N697        N  0.40236849  0.01893905  0.53753411    -0.35700
N698        N  0.40113255  0.98813640  0.97134748    -0.56300
C699        C  0.27904778  0.97095419  0.98381423     0.27900
C700        C  0.32497602  0.95544457  0.94736629     0.27900
C701        C  0.39535356  0.02010002  0.57006224     0.27900
C702        C  0.43964607  0.00335056  0.53313270     0.27900
C703        C  0.27746311  0.01505112  0.53653041     0.36500
C704        C  0.32413179  0.03655735  0.56949263     0.36500
C705        C  0.39282570  0.98378497  0.93928261     0.36500
C706        C  0.43842115  0.00371204  0.97328553     0.36500
C707        C  0.26521630  0.93525495  0.96357314    -0.21000
C708        C  0.29381950  0.92598667  0.94060834    -0.21000
C709        C  0.42834712  0.00412305  0.58664157    -0.21000
C710        C  0.45611753  0.99286935  0.56324184    -0.21000
C711        C  0.25977877  0.03530552  0.56403531    -0.22000
C712        C  0.28916959  0.04943979  0.58440814    -0.22000
C713        C  0.42496919  0.99771247  0.92057687    -0.22000
C714        C  0.45360751  0.01122360  0.94220436    -0.22000
C715        C  0.25760803  0.99399552  0.50951983    -0.17400
C716        C  0.35954007  0.95943778  0.92797747    -0.17400
C717        C  0.45984235  0.00364301  0.50275034    -0.17400
C718        C  0.36139958  0.04028714  0.58435471    -0.17400
H719        H  0.23816464  0.91583932  0.96501625     0.15500
H720        H  0.29132176  0.90044667  0.92109546     0.15500
H721        H  0.43237824  0.00050763  0.61275859     0.15500
H722        H  0.48549561  0.97992997  0.56796656     0.15500
H723        H  0.22915041  0.03761178  0.57067523     0.13800
H724        H  0.28481167  0.06446519  0.60852947     0.13800
H725        H  0.42832624  0.99713599  0.89424573     0.13800
H726        H  0.48292964  0.02263810  0.93576506     0.13800
H727        H  0.33184108  0.01148726  0.98192095     0.27100
H728        H  0.38459805  0.03458456  0.51982925     0.27100
O729        O  0.52381459  0.88365787  0.80657880    -0.56900
C730        C  0.63255205  0.93676414  0.78975513     0.75700
O731        O  0.62500613  0.88961177  0.88618009    -0.58100
C732        C  0.50410103  0.87711878  0.83261735     0.75700
C733        C  0.60096446  0.77615766  0.82763098     0.78100
Cd734      Cd  0.58879696  0.87643481  0.83412949     1.37500
O735        O  0.59571058  0.93943511  0.79319012    -0.56900
O736        O  0.58816245  0.80073751  0.80414527    -0.55700
C737        C  0.60060966  0.91986704  0.89686075     0.78000
O738        O  0.61113148  0.79814941  0.85313212    -0.58100
O739        O  0.64979486  0.90515376  0.80618981    -0.56500
O740        O  0.52335545  0.86949442  0.85846631    -0.56500
O741        O  0.57268198  0.93094998  0.87809331    -0.55700
O742        O  0.52326244  0.11437167  0.69721326    -0.56900
C743        C  0.63037614  0.06880017  0.71341919     0.75700
O744        O  0.62602500  0.11020976  0.61837703    -0.58100
C745        C  0.50273638  0.12699758  0.67292666     0.75700
C746        C  0.59923195  0.22613616  0.67301333     0.78100
Cd747      Cd  0.58684519  0.12658291  0.66875875     1.37500
O748        O  0.59344739  0.06634986  0.71139313    -0.56900
O749        O  0.58697642  0.20321901  0.69754994    -0.55700
C750        C  0.60110227  0.08203742  0.60663013     0.78000
O751        O  0.60868704  0.20266661  0.64787173    -0.58100
O752        O  0.64721719  0.09926898  0.69575399    -0.56500
O753        O  0.52102373  0.13954190  0.64735377    -0.56500
O754        O  0.57135355  0.07331687  0.62422638    -0.55700
C755        C  0.71308088  0.00036633  0.74681511     0.81100
N756        N  0.69236242  0.03556766  0.73238692    -0.77200
C757        C  0.65260705  0.03656493  0.73424452     0.83600
N758        N  0.63344537  0.00385293  0.75239722    -0.77100
C759        C  0.65376424  0.96957607  0.76816794     0.83700
N760        N  0.69348906  0.96727361  0.76474873    -0.78800
O761        O  0.51985244  0.61739163  0.80421157    -0.56900
C762        C  0.63148309  0.57017054  0.78448803     0.75700
O763        O  0.61134399  0.70008641  0.85078421    -0.58100
C764        C  0.50119845  0.62674369  0.83036252     0.75700
C765        C  0.59868685  0.57072346  0.88786201     0.78100
Cd766      Cd  0.58577294  0.62498030  0.82973983     1.37500
O767        O  0.59447967  0.57300017  0.78266627    -0.56900
O768        O  0.58333102  0.55314420  0.86256186    -0.55700
C769        C  0.60057909  0.72455306  0.82652596     0.78000
O770        O  0.61047034  0.61285094  0.88570261    -0.58100
O771        O  0.64802129  0.59597064  0.80556726    -0.56500
O772        O  0.52142304  0.63499438  0.85554235    -0.56500
O773        O  0.58650835  0.70250980  0.80236608    -0.55700
O774        O  0.52331666  0.38863536  0.69570909    -0.56900
C775        C  0.63089307  0.43721007  0.70924070     0.75700
O776        O  0.60851807  0.29964989  0.64667011    -0.58100
C777        C  0.50226857  0.37726304  0.67145867     0.75700
C778        C  0.59962068  0.41636010  0.60148515     0.78100
Cd779      Cd  0.58673525  0.37711801  0.66582364     1.37500
O780        O  0.59460405  0.44311303  0.70422533    -0.56900
O781        O  0.56868301  0.42348422  0.61803915    -0.55700
C782        C  0.59921035  0.27755574  0.67238712     0.78000
O783        O  0.62626652  0.39224444  0.61514775    -0.58100
O784        O  0.64715972  0.40306108  0.69451578    -0.56500
O785        O  0.52014496  0.36583205  0.64539645    -0.56500
O786        O  0.58705108  0.30183560  0.69638684    -0.55700
C787        C  0.71282663  0.49659999  0.75201421     0.81100
N788        N  0.69219116  0.46411700  0.73465207    -0.77200
C789        C  0.65277422  0.46904270  0.73074587     0.83600
N790        N  0.63365297  0.50520231  0.74564877    -0.77100
C791        C  0.65355320  0.53654229  0.76423591     0.83700
N792        N  0.69315738  0.53256449  0.76701429    -0.78800
N793        N  0.14814430  0.47304311  0.72755997    -0.35700
N794        N  0.14651732  0.52542934  0.78846169    -0.56300
N795        N  0.06009403  0.52346121  0.78870790    -0.35700
N796        N  0.06233367  0.47235456  0.72787759    -0.56300
C797        C  0.18486155  0.49089570  0.72769147     0.27900
C798        C  0.13984652  0.46092239  0.69624798     0.27900
C799        C  0.06677838  0.53388784  0.82049524     0.27900
C800        C  0.02176619  0.51120206  0.78622713     0.27900
C801        C  0.18593728  0.52003331  0.78524749     0.36500
C802        C  0.13990217  0.54292925  0.81887264     0.36500
C803        C  0.07168842  0.43754255  0.70681186     0.36500
C804        C  0.02540262  0.46371676  0.73813136     0.36500
C805        C  0.20002851  0.49011364  0.69599780    -0.21000
C806        C  0.17155780  0.47123458  0.67613927    -0.21000
C807        C  0.03231293  0.52752637  0.83838718    -0.21000
C808        C  0.00444677  0.51183290  0.81697142    -0.21000
C809        C  0.20410677  0.53302438  0.81427805    -0.22000
C810        C  0.17512320  0.54835650  0.83516933    -0.22000
C811        C  0.04129321  0.40543390  0.70466084    -0.22000
C812        C  0.01224987  0.42134266  0.72546525    -0.22000
C813        C  0.20550313  0.50581963  0.75590820    -0.17400
C814        C  0.10481484  0.43893135  0.68624597    -0.17400
C815        C  0.00327492  0.49569651  0.75719735    -0.17400
C816        C  0.10267687  0.55010170  0.83367324    -0.17400
H817        H  0.22851549  0.50233612  0.68786407     0.15500
H818        H  0.17404497  0.46587298  0.64995347     0.15500
H819        H  0.02739860  0.53197112  0.86436287     0.15500
H820        H  0.97508366  0.50085732  0.82362457     0.15500
H821        H  0.23481853  0.53102433  0.82059514     0.13800
H822        H  0.17941233  0.55985012  0.86019145     0.13800
H823        H  0.04000511  0.37442655  0.68926130     0.13800
H824        H  0.98400384  0.40498268  0.72958711     0.13800
H825        H  0.13107969  0.46524126  0.74811398     0.27100
H826        H  0.07945793  0.52893214  0.76928481     0.27100
N827        N  0.81608425  0.47453962  0.71977269    -0.35700
N828        N  0.90204772  0.48228190  0.71817232    -0.56300
N829        N  0.90000305  0.52394154  0.78219324    -0.35700
N830        N  0.81410940  0.52373197  0.78217165    -0.56300
C831        C  0.82326136  0.46389172  0.68789829     0.27900
C832        C  0.77710000  0.48408673  0.72263399     0.27900
C833        C  0.93680632  0.53335516  0.77158642     0.27900
C834        C  0.89006236  0.55858665  0.80340227     0.27900
C835        C  0.89662369  0.46774585  0.68701076     0.36500
C836        C  0.94111286  0.48958872  0.72150890     0.36500
C837        C  0.77650005  0.50890238  0.78124175     0.36500
C838        C  0.82100765  0.53763399  0.81331298     0.36500
C839        C  0.78861835  0.46617667  0.67039558    -0.21000
C840        C  0.75972866  0.47972918  0.69202743    -0.21000
C841        C  0.94939596  0.57578683  0.78452816    -0.21000
C842        C  0.92014524  0.59122518  0.80529406    -0.21000
C843        C  0.93212555  0.46826202  0.67011772    -0.22000
C844        C  0.95974748  0.48411408  0.69151104    -0.22000
C845        C  0.75956443  0.51299923  0.81218813    -0.22000
C846        C  0.78780340  0.53135032  0.83249995    -0.22000
C847        C  0.86023821  0.45443773  0.67331040    -0.17400
C848        C  0.75672211  0.49547650  0.75220438    -0.17400
C849        C  0.85633642  0.55862692  0.82349564    -0.17400
C850        C  0.95928672  0.50347837  0.75112677    -0.17400
H851        H  0.78483883  0.46082958  0.64433178     0.15500
H852        H  0.72961260  0.48676283  0.68531354     0.15500
H853        H  0.97717375  0.59309284  0.78009039     0.15500
H854        H  0.92098333  0.62266064  0.82029745     0.15500
H855        H  0.93793836  0.45968932  0.64475831     0.13800
H856        H  0.98996290  0.49156736  0.68519719     0.13800
H857        H  0.72994433  0.50392177  0.81945638     0.13800
H858        H  0.78416890  0.53939556  0.85827178     0.13800
H859        H  0.83603504  0.47176430  0.73885345     0.27100
H860        H  0.88476709  0.49260320  0.77849480     0.27100
O861        O  0.93779508  0.61909242  0.94621980    -0.56900
C862        C  0.82957147  0.57245579  0.96279384     0.75700
O863        O  0.85223427  0.70552087  0.89586524    -0.58100
C864        C  0.95889308  0.62874749  0.92146272     0.75700
C865        C  0.85981757  0.58118277  0.85608371     0.78100
Cd866      Cd  0.87410528  0.62895197  0.91729797     1.37500
O867        O  0.86647048  0.56922839  0.96014593    -0.56900
O868        O  0.88950727  0.57324516  0.87373203    -0.55700
C869        C  0.86203075  0.72919661  0.92071193     0.78000
O870        O  0.83498199  0.61057887  0.86710948    -0.58100
O871        O  0.81293906  0.60370748  0.94564103    -0.56500
O872        O  0.94099004  0.63842679  0.89520804    -0.56500
O873        O  0.87455810  0.70634653  0.94511397    -0.55700
O874        O  0.94001460  0.39159496  0.55599646    -0.56900
C875        C  0.82872195  0.43702335  0.53580009     0.75700
O876        O  0.84629310  0.30308474  0.59752273    -0.58100
C877        C  0.95847905  0.37974469  0.58158276     0.75700
C878        C  0.86111329  0.43061399  0.64102753     0.78100
Cd879      Cd  0.87357481  0.38034261  0.58070235     1.37500
O880        O  0.86582210  0.43746431  0.53649650    -0.56900
O881        O  0.87674900  0.44956771  0.61622898    -0.55700
C882        C  0.86097686  0.28019974  0.57376597     0.78000
O883        O  0.84811896  0.38922356  0.63736623    -0.58100
O884        O  0.81173458  0.40762413  0.55432985    -0.56500
O885        O  0.93794282  0.36798518  0.60610516    -0.56500
O886        O  0.87789674  0.30402215  0.55166402    -0.55700
C887        C  0.74710490  0.50512366  0.49864788     0.81100
N888        N  0.76711549  0.47036829  0.51453970    -0.77200
C889        C  0.80697260  0.47066498  0.51542417     0.83600
N890        N  0.82690739  0.50513751  0.49962186    -0.77100
C891        C  0.80742525  0.53991899  0.98368545     0.83700
N892        N  0.76753240  0.54047514  0.98391489    -0.78800
O893        O  0.93618617  0.88729583  0.94547073    -0.56900
C894        C  0.83069491  0.94521333  0.95446819     0.75700
O895        O  0.83492964  0.89163639  0.86276671    -0.58100
C896        C  0.95827070  0.88064228  0.92077613     0.75700
C897        C  0.86203972  0.78069198  0.92003464     0.78100
Cd898      Cd  0.87433699  0.88030573  0.91334919     1.37500
O899        O  0.86623337  0.95185074  0.94685190    -0.56900
O900        O  0.87536942  0.80478215  0.94350150    -0.55700
C901        C  0.86173713  0.91362819  0.84766000     0.78000
O902        O  0.85143598  0.80302298  0.89482369    -0.58100
O903        O  0.81499968  0.90823529  0.94343672    -0.56500
O904        O  0.94158891  0.87399857  0.89359278    -0.56500
O905        O  0.89298684  0.92122272  0.86333379    -0.55700
O906        O  0.86826256  0.07834122  0.52936517    -0.56900
C907        C  0.96134941  0.12837925  0.57966982     0.75700
O908        O  0.84854581  0.20433378  0.59703895    -0.58100
C909        C  0.83114381  0.07718933  0.53058122     0.75700
C910        C  0.86180585  0.07147491  0.63539234     0.78100
Cd911      Cd  0.87640076  0.12809274  0.57788357     1.37500
O912        O  0.94329500  0.11783635  0.55365187    -0.56900
O913        O  0.87721606  0.05465303  0.60965584    -0.55700
C914        C  0.86180304  0.22841064  0.57337495     0.78000
O915        O  0.85054804  0.11404104  0.63403341    -0.58100
O916        O  0.94042001  0.13842661  0.60439799    -0.56500
O917        O  0.81456196  0.10246672  0.55220020    -0.56500
O918        O  0.87879674  0.20581965  0.55059879    -0.55700
C919        C  0.74927106  0.00746849  0.99711782     0.81100
N920        N  0.76957946  0.97503009  0.97912978    -0.77200
C921        C  0.80900306  0.97896092  0.97500429     0.83600
N922        N  0.82845171  0.01448152  0.98996002    -0.77100
C923        C  0.80881406  0.04580517  0.50917145     0.83700
N924        N  0.76915800  0.04267736  0.51229535    -0.78800
N925        N  0.14457264  0.97827517  0.78533647    -0.35700
N926        N  0.14659702  0.02862213  0.72353403    -0.56300
N927        N  0.06061826  0.02313506  0.72118982    -0.35700
N928        N  0.05835239  0.98044051  0.78485118    -0.56300
C929        C  0.18357384  0.98739550  0.78277864     0.27900
C930        C  0.13714546  0.96613011  0.81688656     0.27900
C931        C  0.06956364  0.05905766  0.70084787     0.27900
C932        C  0.02290936  0.02964826  0.73067898     0.27900
C933        C  0.18431393  0.01379246  0.72454274     0.36500
C934        C  0.13967785  0.04187223  0.69227561     0.36500
C935        C  0.06349673  0.96774653  0.81643800     0.36500
C936        C  0.01915104  0.98557669  0.78050852     0.36500
C937        C  0.20085651  0.98109709  0.81324617    -0.21000
C938        C  0.17177963  0.96703610  0.83450105    -0.21000
C939        C  0.03782094  0.08965135  0.69844568    -0.21000
C940        C  0.00854006  0.07153283  0.71793894    -0.21000
C941        C  0.20127149  0.01741602  0.69359553    -0.22000
C942        C  0.17298527  0.03544086  0.67318209    -0.22000
C943        C  0.02747280  0.96720611  0.83256059    -0.22000
C944        C  0.99981046  0.98039476  0.81019906    -0.22000
C945        C  0.20401414  0.99975451  0.75347666    -0.17400
C946        C  0.09997980  0.95625291  0.83102532    -0.17400
C947        C  0.00144519  0.99798367  0.75033701    -0.17400
C948        C  0.10394950  0.06159173  0.68165353    -0.17400
H949        H  0.23107701  0.98693655  0.82004503     0.15500
H950        H  0.17550414  0.96011230  0.86038802     0.15500
H951        H  0.03590758  0.12145759  0.68391002     0.15500
H952        H  0.97971254  0.08686860  0.72179083     0.15500
H953        H  0.23079539  0.00768946  0.68624974     0.13800
H954        H  0.17652496  0.04248689  0.64727744     0.13800
H955        H  0.02128962  0.95959109  0.85799029     0.13800
H956        H  0.96908838  0.98648775  0.81565534     0.13800
H957        H  0.12480210  0.97676045  0.76611681     0.27100
H958        H  0.07740256  0.99278672  0.72495796     0.27100
N959        N  0.81408892  0.96396854  0.77178250    -0.35700
N960        N  0.81556396  0.01744165  0.71092489    -0.56300
N961        N  0.90146184  0.01522375  0.71119515    -0.35700
N962        N  0.89919883  0.96191118  0.77104068    -0.56300
C963        C  0.77795825  0.98384008  0.77195867     0.27900
C964        C  0.82275316  0.95288920  0.80324900     0.27900
C965        C  0.89519882  0.02673094  0.67949082     0.27900
C966        C  0.93985274  0.00301858  0.71396786     0.27900
C967        C  0.77611490  0.01307872  0.71448982     0.36500
C968        C  0.82211264  0.03665304  0.68099762     0.36500
C969        C  0.89069882  0.92802188  0.79294163     0.36500
C970        C  0.93677431  0.95480336  0.76185071     0.36500
C971        C  0.76372085  0.98568318  0.80391858    -0.21000
C972        C  0.79198898  0.96610794  0.82365248    -0.21000
C973        C  0.93004023  0.02092791  0.66192646    -0.21000
C974        C  0.95775955  0.00475878  0.68348561    -0.20200
C975        C  0.75774681  0.02839213  0.68604579    -0.22000
C976        C  0.78672567  0.04407467  0.66524766    -0.22000
C977        C  0.92231296  0.89753952  0.79646325    -0.22000
C978        C  0.95133046  0.91385066  0.77588242    -0.22000
C979        C  0.75686478  0.99851553  0.74392786    -0.17400
C980        C  0.85749791  0.93007486  0.81342608    -0.17400
C981        C  0.95818374  0.98766273  0.74317114    -0.17400
C982        C  0.85944388  0.04397279  0.66629432    -0.17400
H983        H  0.73605346  0.00034679  0.81234283     0.15500
H984        H  0.79011417  0.96262928  0.85001360     0.15500
H985        H  0.93536676  0.02643464  0.63611112     0.15500
H986        H  0.98755041  0.99465179  0.67720243     0.15500
H987        H  0.72685578  0.02815820  0.68020699     0.13800
H988        H  0.78227937  0.05746238  0.64070183     0.13800
H989        H  0.92459051  0.86774668  0.81289874     0.13800
H990        H  0.98047137  0.89895636  0.77298559     0.13800
H991        H  0.83038669  0.95456140  0.75105437     0.27100
H992        H  0.88190787  0.02033872  0.73056711     0.27100
O993        O  0.02065968  0.61953274  0.94877591    -0.56900
C994        C  0.13163488  0.57412527  0.96989574     0.75700
O995        O  0.11229057  0.61812280  0.86742726    -0.58100
C996        C  0.00202088  0.62875763  0.92278164     0.75700
C997        C  0.10028604  0.72925846  0.92846561     0.78100
Cd998      Cd  0.08709321  0.62907673  0.92378687     1.37500
O999        O  0.09455189  0.57629782  0.97065637    -0.56900
O1000       O  0.08435956  0.70625354  0.95145944    -0.55700
C1001       C  0.10081665  0.57587913  0.86514304     0.78000
O1002       O  0.11373400  0.70558015  0.90459775    -0.58100
O1003       O  0.14887844  0.60041882  0.94935602    -0.56500
O1004       O  0.02243938  0.63806674  0.89767849    -0.56500
O1005       O  0.08596764  0.55772879  0.89056385    -0.55700
O1006       O  0.09344680  0.44671357  0.55063951    -0.56900
C1007       C  0.00154471  0.37978549  0.58326772     0.75700
O1008       O  0.10833359  0.30359162  0.60893380    -0.58100
C1009       C  0.12949981  0.44018966  0.54461411     0.75700
C1010       C  0.10044599  0.42036939  0.65259428     0.78100
Cd1011     Cd  0.08608737  0.38045302  0.58894577     1.37500
O1012       O  0.02296340  0.39296731  0.55953340    -0.56900
O1013       O  0.06928830  0.42783721  0.63668983    -0.55700
C1014       C  0.09989030  0.28094031  0.58331083     0.78000
O1015       O  0.12660483  0.39575533  0.63850253    -0.58100
O1016       O  0.01905786  0.36681377  0.60899593    -0.56500
O1017       O  0.14567361  0.40541915  0.55851898    -0.56500
O1018       O  0.08789228  0.30466036  0.55910002    -0.55700
C1019       C  0.21216351  0.50179877  0.50442854     0.81100
N1020       N  0.19106022  0.46814881  0.52028487    -0.77200
C1021       C  0.15146290  0.47220032  0.52319687     0.83600
N1022       N  0.13255998  0.50836061  0.50824343    -0.77100
C1023       C  0.15302300  0.54068187  0.99071463     0.83700
N1024       N  0.19284062  0.53791008  0.98946541    -0.78800
O1025       O  0.01944429  0.88833692  0.94919478    -0.56900
C1026       C  0.13032263  0.93488564  0.96928925     0.75700
O1027       O  0.11227509  0.80435223  0.90394169    -0.58100
C1028       C  0.00120006  0.88065949  0.92278157     0.75700
C1029       C  0.09886126  0.93248231  0.86333860     0.78100
Cd1030     Cd  0.08579800  0.88115447  0.92315065     1.37500
O1031       O  0.09331142  0.93744289  0.96782492    -0.56900
O1032       O  0.08206621  0.95099024  0.88789224    -0.55700
C1033       C  0.09974557  0.78098898  0.92821196     0.78000
O1034       O  0.11271082  0.89137027  0.86716881    -0.58100
O1035       O  0.14708165  0.90530699  0.95060305    -0.56500
O1036       O  0.02184406  0.87304730  0.89750837    -0.56500
O1037       O  0.08377573  0.80423609  0.95118305    -0.55700
O1038       O  0.09576669  0.06800139  0.54550738    -0.56900
C1039       C  0.00438787  0.12898588  0.58148684     0.75700
O1040       O  0.12675588  0.11132826  0.63754015    -0.58100
C1041       C  0.13269322  0.06957668  0.54281950     0.75700
C1042       C  0.10062193  0.22946589  0.58293763     0.78100
Cd1043     Cd  0.08877679  0.12949879  0.58699012     1.37500
O1044       O  0.02608377  0.11941291  0.55702236    -0.56900
O1045       O  0.08958880  0.20615423  0.55828321    -0.55700
C1046       C  0.10081686  0.08404126  0.64905221     0.78000
O1047       O  0.10940655  0.20628000  0.60828909    -0.58100
O1048       O  0.02158705  0.13912096  0.60794736    -0.56500
O1049       O  0.15000532  0.10055044  0.55962061    -0.56500
O1050       O  0.07090899  0.07730565  0.63151495    -0.55700
C1051       C  0.21337675  0.99691459  0.50799381     0.81100
N1052       N  0.19219118  0.96362944  0.99209712    -0.77200
C1053       C  0.15245598  0.96640988  0.99063572     0.83600
N1054       N  0.13338391  0.00184795  0.50633932    -0.77100
C1055       C  0.15390167  0.03560321  0.52212596     0.83700
N1056       N  0.19377475  0.03409989  0.52162876    -0.78800
loop_ 
_geom_bond_atom_site_label_1 
_geom_bond_atom_site_label_2 
_geom_bond_distance 
_geom_bond_site_symmetry_2 
_ccdc_geom_bond_type 
N1            C6   1.352       .  A
N1            C5   1.356       .  A
N1           H33   1.042       .  S
N2            C9   1.346       .  A
N2           C10   1.346       .  A
N3            C8   1.351       .  A
N3            C7   1.354       .  A
N3           H34   1.040       .  S
N4           C11   1.355       .  A
N4           C12   1.354       .  A
C5           C13   1.385       .  A
C5           C21   1.412       .  A
C6           C22   1.419   1_554  A
C6           C14   1.390       .  A
C7           C15   1.383       .  A
C7           C24   1.414       .  A
C8           C23   1.416       .  A
C8           C16   1.391       .  A
C9           C21   1.405       .  A
C9           C17   1.386       .  A
C10          C18   1.387       .  A
C10         C552   1.409   1_554  A
C11          C19   1.390       .  A
C11         C550   1.423       .  A
C12          C20   1.384       .  A
C12          C23   1.415       .  A
C13          C14   1.377       .  A
C13          H25   1.082       .  S
C14          H26   1.082       .  S
C15          C16   1.370       .  A
C15          H27   1.082       .  S
C16          H28   1.079       .  S
C17          C18   1.375       .  A
C17          H29   1.082       .  S
C18          H30   1.082       .  S
C19          C20   1.372       .  A
C19          H31   1.080       .  S
C20          H32   1.083       .  S
C21         C250   1.482       .  S
C22         C539   1.423       .  A
C22         C359   1.493       .  S
C23         C237   1.479       .  S
C24         C538   1.409       .  A
C24          C57   1.531       .  S
N35          C40   1.357       .  A
N35          C39   1.358       .  A
N35          H67   1.037       .  S
N36          C43   1.351       .  A
N36          C44   1.353       .  A
N37          C42   1.351       .  A
N37          C41   1.350       .  A
N37          H68   1.043       .  S
N38          C45   1.349       .  A
N38          C46   1.353       .  A
C39          C47   1.391       .  A
C39          C55   1.428       .  A
C40          C56   1.417       .  A
C40          C48   1.384       .  A
C41          C49   1.387       .  A
C41          C58   1.407       .  A
C42          C57   1.410       .  A
C42          C50   1.386       .  A
C43          C51   1.390       .  A
C43         C583   1.419       .  A
C44          C58   1.409       .  A
C44          C52   1.384       .  A
C45          C53   1.389       .  A
C45          C56   1.414       .  A
C46          C54   1.383       .  A
C46         C585   1.414       .  A
C47          C48   1.373       .  A
C47          H59   1.080       .  S
C48          H60   1.083       .  S
C49          C50   1.374       .  A
C49          H61   1.082       .  S
C50          H62   1.082       .  S
C51          C52   1.374       .  A
C51          H63   1.082       .  S
C52          H64   1.082       .  S
C53          C54   1.365       .  A
C53          H65   1.080       .  S
C54          H66   1.081       .  S
C55         C571   1.419   1_554  A
C55         C491   1.494       .  S
C56          C90   1.480       .  S
C57         C574   1.414       .  A
C58          C77   1.482       .  S
O69          C72   1.267       .  A
O69         Cd74   2.479       .  S
C70          C97   1.467       .  S
C70          O79   1.265       .  A
C70          O75   1.262       .  A
O71          C77   1.266       .  A
O71         Cd74   2.497       .  S
C72         C236   1.463       .  S
C72          O80   1.265       .  A
C73         C109   1.465       .  S
C73          O78   1.263       .  A
C73          O76   1.264       .  A
Cd74         O81   2.436       .  S
Cd74         O80   2.437       .  S
Cd74         O79   2.482       .  S
Cd74         O75   2.459       .  S
Cd74         O78   2.474       .  S
Cd74         O76   2.467       .  S
C77          O81   1.263       .  A
O82          C85   1.265       .  A
O82         Cd87   2.496       .  S
C83          C99   1.467       .  S
C83          O92   1.267       .  A
C83          O88   1.264       .  A
O84          C90   1.266       .  A
O84         Cd87   2.479       .  S
C85         C249   1.467       .  S
C85          O93   1.263       .  A
C86         C122   1.472       .  S
C86          O91   1.265       .  A
C86          O89   1.266       .  A
Cd87         O94   2.443       .  S
Cd87         O93   2.454       .  S
Cd87         O92   2.479       .  S
Cd87         O88   2.444       .  S
Cd87         O91   2.480       .  S
Cd87         O89   2.486       .  S
C90          O94   1.263       .  A
C95          N96   1.360       .  A
C95         N100   1.362       .  A
C95         C285   1.493       .  S
N96          C97   1.357       .  A
C97          N98   1.357       .  A
N98          C99   1.357       .  A
C99         N100   1.358       .  A
O101        C104   1.265       .  A
O101       Cd106   2.491       .  S
C102        C131   1.466       .  S
C102        O111   1.267       .  A
C102        O107   1.264       .  A
O103        C109   1.265       .  A
O103       Cd106   2.476       .  S
C104        C204   1.467       .  S
C104        O112   1.263       .  A
C105        C188   1.485       .  S
C105        O110   1.266       .  A
C105        O108   1.263       .  A
Cd106       O113   2.457       .  S
Cd106       O112   2.451       .  S
Cd106       O111   2.491       .  S
Cd106       O107   2.432       .  S
Cd106       O110   2.471       .  S
Cd106       O108   2.455       .  S
C109        O113   1.264       .  A
O114        C117   1.267       .  A
O114       Cd119   2.476       .  S
C115        C129   1.467       .  S
C115        O124   1.266       .  A
C115        O120   1.264       .  A
O116        C122   1.266       .  A
O116       Cd119   2.484       .  S
C117        C217   1.463       .  S
C117        O125   1.264       .  A
C118        C190   1.487       .  S
C118        O123   1.269       .  A
C118        O121   1.262       .  A
Cd119       O126   2.480       .  S
Cd119       O125   2.437       .  S
Cd119       O124   2.484       .  S
Cd119       O120   2.442       .  S
Cd119       O123   2.467       .  S
Cd119       O121   2.449       .  S
C122        O126   1.265       .  A
C127        N128   1.363   1_565  A
C127        N132   1.362       .  A
C127        C417   1.494       .  S
N128        C129   1.358       .  A
C129        N130   1.355       .  A
N130        C131   1.355   1_545  A
C131        N132   1.358       .  A
N133        C138   1.354       .  A
N133        C137   1.353       .  A
N133        H165   1.042       .  S
N134        C141   1.351       .  A
N134        C142   1.352       .  A
N135        C140   1.353       .  A
N135        C139   1.347       .  A
N135        H166   1.042   1_545  S
N136        C143   1.346       .  A
N136        C144   1.350       .  A
C137        C145   1.389       .  A
C137        C681   1.418   1_565  A
C138        C154   1.411       .  A
C138        C146   1.385       .  A
C139        C147   1.388       .  A
C139        C156   1.409       .  A
C140        C155   1.414       .  A
C140        C148   1.387       .  A
C141        C153   1.416   1_554  A
C141        C149   1.388       .  A
C142        C156   1.412       .  A
C142        C150   1.386       .  A
C143        C151   1.387       .  A
C143        C154   1.408       .  A
C144        C152   1.386       .  A
C144        C683   1.412   1_565  A
C145        C146   1.377       .  A
C145        H157   1.082   1_565  S
C146        H158   1.082       .  S
C147        C148   1.376       .  A
C147        H159   1.082       .  S
C148        H160   1.082       .  S
C149        C150   1.377       .  A
C149        H161   1.082       .  S
C150        H162   1.082       .  S
C151        C152   1.375       .  A
C151        H163   1.082       .  S
C152        H164   1.082       .  S
C153        C665   1.418   1_545  A
C153        C919   1.490       .  S
C154        C209   1.477       .  S
C155        C672   1.412   1_544  A
C155        C189   1.507       .  S
C156        C222   1.478       .  S
N167        C172   1.358       .  A
N167        C171   1.357       .  A
N167        H199   1.042   1_565  S
N168        C175   1.356       .  A
N168        C176   1.355       .  A
N169        C174   1.353       .  A
N169        C173   1.348       .  A
N169        H200   1.043       .  S
N170        C177   1.346       .  A
N170        C178   1.349   1_565  A
C171        C179   1.393       .  A
C171        C715   1.431       .  A
C172        C188   1.419       .  A
C172        C180   1.383       .  A
C173        C181   1.389       .  A
C173        C190   1.411       .  A
C174        C189   1.414       .  A
C174        C182   1.385   1_545  A
C175        C187   1.428   1_545  A
C175        C183   1.393       .  A
C176        C190   1.414       .  A
C176        C184   1.381       .  A
C177        C185   1.390       .  A
C177        C188   1.410       .  A
C178        C186   1.384       .  A
C178        C717   1.411       .  A
C179        C180   1.372       .  A
C179        H191   1.077       .  S
C180        H192   1.081       .  S
C181        C182   1.376   1_545  A
C181        H193   1.080       .  S
C182        H194   1.082       .  S
C183        C184   1.366       .  A
C183        H195   1.078       .  S
C184        H196   1.082       .  S
C185        C186   1.375   1_565  A
C185        H197   1.080       .  S
C186        H198   1.082       .  S
C187        C699   1.431   1_554  A
C187        C523   1.509       .  S
C189        C706   1.411   1_554  A
O201        C204   1.268       .  A
O201       Cd206   2.495       .  S
C202        C231   1.472       .  S
C202        O211   1.265       .  A
C202        O207   1.263       .  A
O203        C209   1.267       .  A
O203       Cd206   2.491       .  S
C204        O212   1.263       .  A
C205        C241   1.466       .  S
C205        O210   1.264       .  A
C205        O208   1.264       .  A
Cd206       O213   2.427       .  S
Cd206       O212   2.443       .  S
Cd206       O211   2.504       .  S
Cd206       O207   2.459       .  S
Cd206       O210   2.472       .  S
Cd206       O208   2.472       .  S
C209        O213   1.263       .  A
O214        C217   1.267       .  A
O214       Cd219   2.477       .  S
C215        C229   1.461       .  S
C215        O224   1.264       .  A
C215        O220   1.263       .  A
O216        C222   1.265       .  A
O216       Cd219   2.487       .  S
C217        O225   1.264       .  A
C218        C254   1.460       .  S
C218        O223   1.262       .  A
C218        O221   1.264       .  A
Cd219       O226   2.425       .  S
Cd219       O225   2.436       .  S
Cd219       O224   2.460       .  S
Cd219       O220   2.450       .  S
Cd219       O223   2.440       .  S
Cd219       O221   2.472       .  S
C222        O226   1.264       .  A
C227        N228   1.357       .  A
C227        N232   1.365   1_545  A
C227        C451   1.495   1_545  S
N228        C229   1.355       .  A
C229        N230   1.356       .  A
N230        C231   1.356   1_545  A
C231        N232   1.360       .  A
O233        C236   1.266       .  A
O233       Cd238   2.490       .  S
C234        C263   1.464       .  S
C234        O243   1.266       .  A
C234        O239   1.265       .  A
O235        C241   1.264       .  A
O235       Cd238   2.463       .  S
C236        O244   1.263       .  A
C237        O242   1.266       .  A
C237        O240   1.263       .  A
Cd238       O245   2.469       .  S
Cd238       O244   2.441       .  S
Cd238       O243   2.470       .  S
Cd238       O239   2.437       .  S
Cd238       O242   2.462       .  S
Cd238       O240   2.442       .  S
C241        O245   1.265       .  A
O246        C249   1.268       .  A
O246       Cd251   2.494       .  S
C247        C261   1.468       .  S
C247        O256   1.264       .  A
C247        O252   1.264       .  A
O248        C254   1.262       .  A
O248       Cd251   2.444       .  S
C249        O257   1.264       .  A
C250        O255   1.266       .  A
C250        O253   1.263       .  A
Cd251       O258   2.475       .  S
Cd251       O257   2.442       .  S
Cd251       O256   2.487       .  S
Cd251       O252   2.458       .  S
Cd251       O255   2.499       .  S
Cd251       O253   2.433       .  S
C254        O258   1.264       .  A
C259        N260   1.363       .  A
C259        N264   1.361       .  A
C259        C320   1.495       .  S
N260        C261   1.359       .  A
C261        N262   1.355       .  A
N262        C263   1.355       .  A
C263        N264   1.358       .  A
N265        C270   1.355       .  A
N265        C269   1.351       .  A
N265        H297   1.042       .  S
N266        C273   1.356       .  A
N266        C274   1.354       .  A
N267        C272   1.357       .  A
N267        C271   1.351       .  A
N267        H298   1.040       .  S
N268        C275   1.345       .  A
N268        C276   1.347       .  A
C269        C277   1.390       .  A
C269        C285   1.418       .  A
C270        C286   1.411       .  A
C270        C278   1.385       .  A
C271        C279   1.391       .  A
C271        C288   1.417       .  A
C272        C287   1.416       .  A
C272        C280   1.383       .  A
C273        C285   1.424       .  A
C273        C281   1.390       .  A
C274        C288   1.415       .  A
C274        C282   1.384       .  A
C275        C283   1.386       .  A
C275        C286   1.403       .  A
C276        C284   1.386       .  A
C276        C287   1.408       .  A
C277        C278   1.377       .  A
C277        H289   1.082       .  S
C278        H290   1.082       .  S
C279        C280   1.369       .  A
C279        H291   1.079       .  S
C280        H292   1.082   1_455  S
C281        C282   1.370       .  A
C281        H293   1.080       .  S
C282        H294   1.083       .  S
C283        C284   1.374       .  A
C283        H295   1.082       .  S
C284        H296   1.082   1_455  S
C286        C482   1.479       .  S
C287        C322   1.534   1_455  S
C288        C473   1.478       .  S
N299        C304   1.358       .  A
N299        C303   1.356       .  A
N299        H331   1.039       .  S
N300        C307   1.351       .  A
N300        C308   1.355       .  A
N301        C306   1.350       .  A
N301        C305   1.351       .  A
N301        H332   1.043       .  S
N302        C309   1.351       .  A
N302        C310   1.352       .  A
C303        C311   1.384       .  A
C303        C319   1.414       .  A
C304        C320   1.425       .  A
C304        C312   1.391       .  A
C305        C313   1.386       .  A
C305        C322   1.410       .  A
C306        C321   1.407       .  A
C306        C314   1.387       .  A
C307        C319   1.415       .  A
C307        C315   1.388       .  A
C308        C322   1.417       .  A
C308        C316   1.384       .  A
C309        C317   1.390       .  A
C309        C320   1.419       .  A
C310        C318   1.384       .  A
C310        C321   1.410       .  A
C311        C312   1.371       .  A
C311        H323   1.083       .  S
C312        H324   1.080       .  S
C313        C314   1.374       .  A
C313        H325   1.082       .  S
C314        H326   1.082       .  S
C315        C316   1.365       .  A
C315        H327   1.080       .  S
C316        H328   1.081       .  S
C317        C318   1.377       .  A
C317        H329   1.082       .  S
C318        H330   1.082       .  S
C319        C350   1.480       .  S
C321        C337   1.481       .  S
O333        C336   1.267       .  A
O333       Cd338   2.489       .  S
C334        C363   1.466       .  S
C334        O343   1.264       .  A
C334        O339   1.263       .  A
O335        C341   1.263       .  A
O335       Cd338   2.457       .  S
C336        C468   1.470   1_655  S
C336        O344   1.265       .  A
C337        O342   1.266       .  A
C337        O340   1.264       .  A
Cd338       O345   2.472       .  S
Cd338       O344   2.461       .  S
Cd338       O343   2.485       .  S
Cd338       O339   2.450       .  S
Cd338       O342   2.505       .  S
Cd338       O340   2.432       .  S
C341        C369   1.462       .  S
C341        O345   1.264       .  A
O346        C349   1.266       .  A
O346       Cd351   2.493       .  S
C347        C361   1.467       .  S
C347        O356   1.266       .  A
C347        O352   1.264       .  A
O348        C354   1.266       .  A
O348       Cd351   2.482       .  S
C349        C479   1.468   1_655  S
C349        O357   1.263       .  A
C350        O355   1.267       .  A
C350        O353   1.263       .  A
Cd351       O358   2.472       .  S
Cd351       O357   2.453       .  S
Cd351       O356   2.490       .  S
Cd351       O352   2.441       .  S
Cd351       O355   2.477       .  S
Cd351       O353   2.445       .  S
C354        C386   1.470       .  S
C354        O358   1.265       .  A
C359        N360   1.363   1_556  A
C359        N892   1.361       .  A
N360        C361   1.358       .  A
C361        N362   1.355   1_554  A
N362        C891   1.355       .  A
C363        N364   1.358       .  A
C363        N890   1.355       .  A
N364        C887   1.361       .  A
O365        C368   1.267       .  A
O365       Cd370   2.495       .  S
C366        C393   1.466       .  S
C366        O375   1.264       .  A
C366        O371   1.263       .  A
O367        C373   1.266       .  A
O367       Cd370   2.488       .  S
C368        C500   1.464   1_655  S
C368        O376   1.263       .  A
C369        O374   1.262       .  A
C369        O372   1.264       .  A
Cd370       O377   2.432       .  S
Cd370       O376   2.429       .  S
Cd370       O375   2.485       .  S
Cd370       O371   2.461       .  S
Cd370       O374   2.452       .  S
Cd370       O372   2.472       .  S
C373        C452   1.481       .  S
C373        O377   1.264       .  A
O378        C381   1.265       .  A
O378       Cd383   2.449       .  S
C379        C511   1.468   1_655  S
C379        O388   1.264       .  A
C379        O384   1.266       .  A
O380        C386   1.266       .  A
O380       Cd383   2.483       .  S
C381        C395   1.466       .  S
C381        O389   1.265       .  A
C382        C454   1.485       .  S
C382        O387   1.267       .  A
C382        O385   1.264       .  A
Cd383       O390   2.473       .  S
Cd383       O389   2.470       .  S
Cd383       O388   2.458       .  S
Cd383       O384   2.493       .  S
Cd383       O387   2.483       .  S
Cd383       O385   2.456       .  S
C386        O390   1.265       .  A
C391        N392   1.361   1_545  A
C391        N924   1.361       .  A
C391        C681   1.490       .  S
N392        C393   1.357       .  A
C393        N394   1.356   1_565  A
N394        C923   1.357       .  A
C395        N396   1.359       .  A
C395        N922   1.357   1_554  A
N396        C919   1.361   1_554  A
N397        C402   1.356       .  A
N397        C401   1.358       .  A
N397        H429   1.037       .  S
N398        C405   1.350       .  A
N398        C406   1.352       .  A
N399        C404   1.351       .  A
N399        C403   1.350       .  A
N399        H430   1.043   1_545  S
N400        C407   1.351       .  A
N400        C408   1.355       .  A
C401        C409   1.390       .  A
C401        C417   1.425       .  A
C402        C418   1.417       .  A
C402        C410   1.385       .  A
C403        C411   1.387       .  A
C403        C420   1.407       .  A
C404        C419   1.409   1_545  A
C404        C412   1.386       .  A
C405        C417   1.417   1_545  A
C405        C413   1.390       .  A
C406        C420   1.407       .  A
C406        C414   1.383       .  A
C407        C415   1.389       .  A
C407        C418   1.417       .  A
C408        C416   1.384   1_455  A
C408        C419   1.418       .  A
C409        C410   1.373       .  A
C409        H421   1.081       .  S
C410        H422   1.083       .  S
C411        C412   1.374       .  A
C411        H423   1.082       .  S
C412        H424   1.082   1_455  S
C413        C414   1.374       .  A
C413        H425   1.082       .  S
C414        H426   1.082       .  S
C415        C416   1.366   1_455  A
C415        H427   1.080       .  S
C416        H428   1.081       .  S
C418        C501   1.482       .  S
C419        C453   1.533   1_455  S
C420        C518   1.479       .  S
N431        C436   1.356       .  A
N431        C435   1.351       .  A
N431        H463   1.043       .  S
N432        C439   1.356       .  A
N432        C440   1.355       .  A
N433        C438   1.356       .  A
N433        C437   1.352       .  A
N433        H464   1.040       .  S
N434        C441   1.345       .  A
N434        C442   1.345       .  A
C435        C443   1.390       .  A
C435        C451   1.416       .  A
C436        C452   1.410       .  A
C436        C444   1.385       .  A
C437        C445   1.391       .  A
C437        C454   1.419       .  A
C438        C453   1.416   1_545  A
C438        C446   1.383       .  A
C439        C451   1.427   1_545  A
C439        C447   1.390       .  A
C440        C454   1.419       .  A
C440        C448   1.384       .  A
C441        C449   1.386       .  A
C441        C452   1.403       .  A
C442        C450   1.387       .  A
C442        C453   1.408       .  A
C443        C444   1.374       .  A
C443        H455   1.082   1_565  S
C444        H456   1.082       .  S
C445        C446   1.371       .  A
C445        H457   1.079       .  S
C446        H458   1.082   1_545  S
C447        C448   1.374       .  A
C447        H459   1.080       .  S
C448        H460   1.083       .  S
C449        C450   1.375       .  A
C449        H461   1.082       .  S
C450        H462   1.082       .  S
O465        C468   1.266       .  A
O465       Cd470   2.492       .  S
C466        C495   1.468       .  S
C466        O475   1.266       .  A
C466        O471   1.264       .  A
O467        C473   1.267       .  A
O467       Cd470   2.469       .  S
C468        O476   1.263       .  A
C469        C505   1.469       .  S
C469        O474   1.265       .  A
C469        O472   1.265       .  A
Cd470       O477   2.437       .  S
Cd470       O476   2.463       .  S
Cd470       O475   2.487       .  S
Cd470       O471   2.444       .  S
Cd470       O474   2.483       .  S
Cd470       O472   2.465       .  S
C473        O477   1.263       .  A
O478        C481   1.263       .  A
O478       Cd483   2.459       .  S
C479        O488   1.264       .  A
C479        O484   1.267       .  A
O480        C486   1.262       .  A
O480       Cd483   2.448       .  S
C481        C493   1.466       .  S
C481        O489   1.264       .  A
C482        O487   1.265       .  A
C482        O485   1.264       .  A
Cd483       O490   2.472       .  S
Cd483       O489   2.479       .  S
Cd483       O488   2.453       .  S
Cd483       O484   2.491       .  S
Cd483       O487   2.494       .  S
Cd483       O485   2.431       .  S
C486        C514   1.461       .  S
C486        O490   1.264       .  A
C491        N492   1.360       .  A
C491       N1024   1.362   1_554  A
N492        C493   1.357       .  A
C493        N494   1.356       .  A
N494       C1023   1.357   1_554  A
C495        N496   1.358       .  A
C495       N1022   1.357       .  A
N496       C1019   1.363       .  A
O497        C500   1.266       .  A
O497       Cd502   2.499       .  S
C498        C525   1.463       .  S
C498        O507   1.266       .  A
C498        O503   1.264       .  A
O499        C505   1.265       .  A
O499       Cd502   2.480       .  S
C500        O508   1.263       .  A
C501        O506   1.267       .  A
C501        O504   1.264       .  A
Cd502       O509   2.467       .  S
Cd502       O508   2.433       .  S
Cd502       O507   2.473       .  S
Cd502       O503   2.439       .  S
Cd502       O506   2.474       .  S
Cd502       O504   2.453       .  S
C505        O509   1.265       .  A
O510        C513   1.262       .  A
O510       Cd515   2.441       .  S
C511        O520   1.265       .  A
C511        O516   1.267       .  A
O512        C518   1.266       .  A
O512       Cd515   2.493       .  S
C513        C527   1.466       .  S
C513        O521   1.265       .  A
C514        O519   1.263       .  A
C514        O517   1.264       .  A
Cd515       O522   2.422       .  S
Cd515       O521   2.495       .  S
Cd515       O520   2.451       .  S
Cd515       O516   2.484       .  S
Cd515       O519   2.454       .  S
Cd515       O517   2.472       .  S
C518        O522   1.263       .  A
C523        N528   1.363   1_565  A
C523       N1052   1.359   1_554  A
N524        C525   1.356       .  A
N524       C1051   1.359       .  A
C525       N1054   1.353   1_565  A
N526        C527   1.354       .  A
N526       C1053   1.353   1_544  A
C527        N528   1.358       .  A
N529        C534   1.352       .  A
N529        C533   1.356       .  A
N529        H561   1.042       .  S
N530        C537   1.346       .  A
N530        C538   1.346       .  A
N531        C536   1.351       .  A
N531        C535   1.354       .  A
N531        H562   1.040       .  S
N532        C539   1.355       .  A
N532        C540   1.354       .  A
C533        C541   1.385       .  A
C533        C549   1.412       .  A
C534        C550   1.419       .  A
C534        C542   1.390       .  A
C535        C543   1.383       .  A
C535        C552   1.414       .  A
C536        C551   1.416       .  A
C536        C544   1.391       .  A
C537        C549   1.405       .  A
C537        C545   1.386       .  A
C538        C546   1.387       .  A
C539        C547   1.390       .  A
C540        C548   1.384       .  A
C540        C551   1.415       .  A
C541        C542   1.377       .  A
C541        H553   1.082       .  S
C542        H554   1.082       .  S
C543        C544   1.370       .  A
C543        H555   1.082       .  S
C544        H556   1.079       .  S
C545        C546   1.375       .  A
C545        H557   1.082       .  S
C546        H558   1.082       .  S
C547        C548   1.372       .  A
C547        H559   1.080       .  S
C548        H560   1.083       .  S
C549        C778   1.482       .  S
C550        C887   1.493       .  S
C551        C765   1.479       .  S
C552        C585   1.531   1_556  S
N563        C568   1.357       .  A
N563        C567   1.358       .  A
N563        H595   1.037       .  S
N564        C571   1.350       .  A
N564        C572   1.353       .  A
N565        C570   1.351       .  A
N565        C569   1.350       .  A
N565        H596   1.043       .  S
N566        C573   1.349       .  A
N566        C574   1.353       .  A
C567        C575   1.391       .  A
C567        C583   1.428       .  A
C568        C584   1.417       .  A
C568        C576   1.384       .  A
C569        C577   1.387       .  A
C569        C586   1.407       .  A
C570        C585   1.410   1_556  A
C570        C578   1.386       .  A
C571        C579   1.390       .  A
C572        C586   1.409       .  A
C572        C580   1.384       .  A
C573        C581   1.389       .  A
C573        C584   1.414       .  A
C574        C582   1.383       .  A
C575        C576   1.373       .  A
C575        H587   1.080       .  S
C576        H588   1.083       .  S
C577        C578   1.374       .  A
C577        H589   1.082       .  S
C578        H590   1.082       .  S
C579        C580   1.374       .  A
C579        H591   1.082       .  S
C580        H592   1.082       .  S
C581        C582   1.365       .  A
C581        H593   1.080       .  S
C582        H594   1.081       .  S
C583       C1019   1.494       .  S
C584        C618   1.480       .  S
C586        C605   1.482       .  S
O597        C600   1.267       .  A
O597       Cd602   2.479       .  S
C598        C625   1.467       .  S
C598        O607   1.265       .  A
C598        O603   1.262       .  A
O599        C605   1.266       .  A
O599       Cd602   2.497       .  S
C600        C764   1.463       .  S
C600        O608   1.265       .  A
C601        C637   1.465       .  S
C601        O606   1.263       .  A
C601        O604   1.264       .  A
Cd602       O609   2.436       .  S
Cd602       O608   2.436       .  S
Cd602       O607   2.482       .  S
Cd602       O603   2.459       .  S
Cd602       O606   2.474       .  S
Cd602       O604   2.467       .  S
C605        O609   1.263       .  A
O610        C613   1.265       .  A
O610       Cd615   2.496       .  S
C611        C627   1.467       .  S
C611        O620   1.267       .  A
C611        O616   1.264       .  A
O612        C618   1.266       .  A
O612       Cd615   2.479       .  S
C613        C777   1.467       .  S
C613        O621   1.263       .  A
C614        C650   1.472       .  S
C614        O619   1.265       .  A
C614        O617   1.266       .  A
Cd615       O622   2.443       .  S
Cd615       O621   2.454       .  S
Cd615       O620   2.479       .  S
Cd615       O616   2.444       .  S
Cd615       O619   2.480       .  S
Cd615       O617   2.486       .  S
C618        O622   1.263       .  A
C623        N624   1.360       .  A
C623        N628   1.362       .  A
C623        C813   1.493       .  S
N624        C625   1.357       .  A
C625        N626   1.357       .  A
N626        C627   1.357       .  A
C627        N628   1.358       .  A
O629        C632   1.265       .  A
O629       Cd634   2.491       .  S
C630        C659   1.466       .  S
C630        O639   1.267       .  A
C630        O635   1.264       .  A
O631        C637   1.265       .  A
O631       Cd634   2.476       .  S
C632        C732   1.467       .  S
C632        O640   1.263       .  A
C633        C716   1.485       .  S
C633        O638   1.266       .  A
C633        O636   1.263       .  A
Cd634       O641   2.457       .  S
Cd634       O640   2.451       .  S
Cd634       O639   2.491       .  S
Cd634       O635   2.432       .  S
Cd634       O638   2.472       .  S
Cd634       O636   2.455       .  S
C637        O641   1.264       .  A
O642        C645   1.267       .  A
O642       Cd647   2.476       .  S
C643        C657   1.467       .  S
C643        O652   1.266       .  A
C643        O648   1.264       .  A
O644        C650   1.266       .  A
O644       Cd647   2.484       .  S
C645        C745   1.463       .  S
C645        O653   1.264       .  A
C646        C718   1.487       .  S
C646        O651   1.269       .  A
C646        O649   1.262       .  A
Cd647       O654   2.480       .  S
Cd647       O653   2.437       .  S
Cd647       O652   2.484       .  S
Cd647       O648   2.442       .  S
Cd647       O651   2.467       .  S
Cd647       O649   2.449       .  S
C650        O654   1.265       .  A
C655        N656   1.363   1_565  A
C655        N660   1.362       .  A
C655        C945   1.494       .  S
N656        C657   1.358       .  A
C657        N658   1.355       .  A
N658        C659   1.355   1_545  A
C659        N660   1.358       .  A
N661        C666   1.354       .  A
N661        C665   1.353       .  A
N661        H693   1.042       .  S
N662        C669   1.351       .  A
N662        C670   1.352       .  A
N663        C668   1.354       .  A
N663        C667   1.347       .  A
N663        H694   1.042   1_545  S
N664        C671   1.346       .  A
N664        C672   1.350       .  A
C665        C673   1.389       .  A
C666        C682   1.411       .  A
C666        C674   1.385       .  A
C667        C675   1.388       .  A
C667        C684   1.409       .  A
C668        C683   1.414       .  A
C668        C676   1.387       .  A
C669        C681   1.416       .  A
C669        C677   1.388       .  A
C670        C684   1.412       .  A
C670        C678   1.386       .  A
C671        C679   1.387       .  A
C671        C682   1.408       .  A
C672        C680   1.386       .  A
C673        C674   1.377       .  A
C673        H685   1.082   1_565  S
C674        H686   1.082       .  S
C675        C676   1.376       .  A
C675        H687   1.082       .  S
C676        H688   1.082       .  S
C677        C678   1.377       .  A
C677        H689   1.082       .  S
C678        H690   1.082       .  S
C679        C680   1.375       .  A
C679        H691   1.082       .  S
C680        H692   1.082       .  S
C682        C737   1.477       .  S
C683        C717   1.507       .  S
C684        C750   1.478       .  S
N695        C700   1.358       .  A
N695        C699   1.357       .  A
N695        H727   1.042   1_565  S
N696        C703   1.356       .  A
N696        C704   1.355       .  A
N697        C702   1.353       .  A
N697        C701   1.348       .  A
N697        H728   1.043       .  S
N698        C705   1.346       .  A
N698        C706   1.349   1_565  A
C699        C707   1.393       .  A
C700        C716   1.419       .  A
C700        C708   1.383       .  A
C701        C709   1.389       .  A
C701        C718   1.411       .  A
C702        C717   1.414       .  A
C702        C710   1.385   1_545  A
C703        C715   1.429   1_545  A
C703        C711   1.393       .  A
C704        C718   1.414       .  A
C704        C712   1.381       .  A
C705        C713   1.390       .  A
C705        C716   1.410       .  A
C706        C714   1.384       .  A
C707        C708   1.372       .  A
C707        H719   1.077       .  S
C708        H720   1.081       .  S
C709        C710   1.376   1_545  A
C709        H721   1.080       .  S
C710        H722   1.082       .  S
C711        C712   1.366       .  A
C711        H723   1.078       .  S
C712        H724   1.082       .  S
C713        C714   1.375   1_565  A
C713        H725   1.080       .  S
C714        H726   1.082       .  S
C715       C1051   1.509       .  S
O729        C732   1.268       .  A
O729       Cd734   2.495       .  S
C730        C759   1.472       .  S
C730        O739   1.265       .  A
C730        O735   1.263       .  A
O731        C737   1.267       .  A
O731       Cd734   2.491       .  S
C732        O740   1.263       .  A
C733        C769   1.466       .  S
C733        O738   1.264       .  A
C733        O736   1.264       .  A
Cd734       O741   2.427       .  S
Cd734       O740   2.443       .  S
Cd734       O739   2.504       .  S
Cd734       O735   2.459       .  S
Cd734       O738   2.472       .  S
Cd734       O736   2.472       .  S
C737        O741   1.263       .  A
O742        C745   1.267       .  A
O742       Cd747   2.477       .  S
C743        C757   1.461       .  S
C743        O752   1.264       .  A
C743        O748   1.263       .  A
O744        C750   1.265       .  A
O744       Cd747   2.487       .  S
C745        O753   1.264       .  A
C746        C782   1.460       .  S
C746        O751   1.262       .  A
C746        O749   1.264       .  A
Cd747       O754   2.425       .  S
Cd747       O753   2.436       .  S
Cd747       O752   2.460       .  S
Cd747       O748   2.450       .  S
Cd747       O751   2.440       .  S
Cd747       O749   2.472       .  S
C750        O754   1.264       .  A
C755        N756   1.357       .  A
C755        N760   1.365   1_545  A
C755        C979   1.495   1_545  S
N756        C757   1.355       .  A
C757        N758   1.356       .  A
N758        C759   1.356   1_545  A
C759        N760   1.360       .  A
O761        C764   1.266       .  A
O761       Cd766   2.490       .  S
C762        C791   1.464       .  S
C762        O771   1.266       .  A
C762        O767   1.265       .  A
O763        C769   1.264       .  A
O763       Cd766   2.463       .  S
C764        O772   1.263       .  A
C765        O770   1.266       .  A
C765        O768   1.263       .  A
Cd766       O773   2.469       .  S
Cd766       O772   2.441       .  S
Cd766       O771   2.470       .  S
Cd766       O767   2.437       .  S
Cd766       O770   2.462       .  S
Cd766       O768   2.442       .  S
C769        O773   1.265       .  A
O774        C777   1.268       .  A
O774       Cd779   2.494       .  S
C775        C789   1.468       .  S
C775        O784   1.264       .  A
C775        O780   1.264       .  A
O776        C782   1.262       .  A
O776       Cd779   2.444       .  S
C777        O785   1.264       .  A
C778        O783   1.266       .  A
C778        O781   1.263       .  A
Cd779       O786   2.475       .  S
Cd779       O785   2.443       .  S
Cd779       O784   2.487       .  S
Cd779       O780   2.458       .  S
Cd779       O783   2.499       .  S
Cd779       O781   2.433       .  S
C782        O786   1.264       .  A
C787        N788   1.363       .  A
C787        N792   1.361       .  A
C787        C848   1.495       .  S
N788        C789   1.359       .  A
C789        N790   1.355       .  A
N790        C791   1.355       .  A
C791        N792   1.358       .  A
N793        C798   1.355       .  A
N793        C797   1.351       .  A
N793        H825   1.042       .  S
N794        C801   1.356       .  A
N794        C802   1.354       .  A
N795        C800   1.357       .  A
N795        C799   1.351       .  A
N795        H826   1.040       .  S
N796        C803   1.345       .  A
N796        C804   1.347       .  A
C797        C805   1.390       .  A
C797        C813   1.418       .  A
C798        C814   1.411       .  A
C798        C806   1.385       .  A
C799        C807   1.391       .  A
C799        C816   1.417       .  A
C800        C815   1.416       .  A
C800        C808   1.383       .  A
C801        C813   1.424       .  A
C801        C809   1.390       .  A
C802        C816   1.415       .  A
C802        C810   1.384       .  A
C803        C811   1.386       .  A
C803        C814   1.403       .  A
C804        C812   1.386       .  A
C804        C815   1.408       .  A
C805        C806   1.377       .  A
C805        H817   1.082       .  S
C806        H818   1.082       .  S
C807        C808   1.369       .  A
C807        H819   1.079       .  S
C808        H820   1.082   1_455  S
C809        C810   1.370       .  A
C809        H821   1.080       .  S
C810        H822   1.083       .  S
C811        C812   1.374       .  A
C811        H823   1.082       .  S
C812        H824   1.082   1_455  S
C814       C1010   1.479       .  S
C815        C850   1.534   1_455  S
C816       C1001   1.478       .  S
N827        C832   1.358       .  A
N827        C831   1.356       .  A
N827        H859   1.039       .  S
N828        C835   1.351       .  A
N828        C836   1.355       .  A
N829        C834   1.350       .  A
N829        C833   1.351       .  A
N829        H860   1.043       .  S
N830        C837   1.351       .  A
N830        C838   1.352       .  A
C831        C839   1.384       .  A
C831        C847   1.414       .  A
C832        C848   1.425       .  A
C832        C840   1.391       .  A
C833        C841   1.386       .  A
C833        C850   1.410       .  A
C834        C849   1.407       .  A
C834        C842   1.387       .  A
C835        C847   1.415       .  A
C835        C843   1.388       .  A
C836        C850   1.417       .  A
C836        C844   1.384       .  A
C837        C845   1.390       .  A
C837        C848   1.419       .  A
C838        C846   1.384       .  A
C838        C849   1.410       .  A
C839        C840   1.371       .  A
C839        H851   1.083       .  S
C840        H852   1.080       .  S
C841        C842   1.374       .  A
C841        H853   1.082       .  S
C842        H854   1.082       .  S
C843        C844   1.365       .  A
C843        H855   1.080       .  S
C844        H856   1.081       .  S
C845        C846   1.377       .  A
C845        H857   1.082       .  S
C846        H858   1.082       .  S
C847        C878   1.480       .  S
C849        C865   1.481       .  S
O861        C864   1.267       .  A
O861       Cd866   2.489       .  S
C862        C891   1.466       .  S
C862        O871   1.264       .  A
C862        O867   1.263       .  A
O863        C869   1.263       .  A
O863       Cd866   2.457       .  S
C864        C996   1.470   1_655  S
C864        O872   1.265       .  A
C865        O870   1.266       .  A
C865        O868   1.264       .  A
Cd866       O873   2.472       .  S
Cd866       O872   2.460       .  S
Cd866       O871   2.485       .  S
Cd866       O867   2.450       .  S
Cd866       O870   2.505       .  S
Cd866       O868   2.432       .  S
C869        C897   1.462       .  S
C869        O873   1.264       .  A
O874        C877   1.266       .  A
O874       Cd879   2.493       .  S
C875        C889   1.467       .  S
C875        O884   1.266       .  A
C875        O880   1.264       .  A
O876        C882   1.266       .  A
O876       Cd879   2.482       .  S
C877       C1007   1.468   1_655  S
C877        O885   1.263       .  A
C878        O883   1.267       .  A
C878        O881   1.263       .  A
Cd879       O886   2.472       .  S
Cd879       O885   2.453       .  S
Cd879       O884   2.490       .  S
Cd879       O880   2.441       .  S
Cd879       O883   2.477       .  S
Cd879       O881   2.444       .  S
C882        C914   1.470       .  S
C882        O886   1.265       .  A
C887        N888   1.363       .  A
N888        C889   1.358       .  A
C889        N890   1.355       .  A
C891        N892   1.358       .  A
O893        C896   1.267       .  A
O893       Cd898   2.495       .  S
C894        C921   1.466       .  S
C894        O903   1.264       .  A
C894        O899   1.263       .  A
O895        C901   1.266       .  A
O895       Cd898   2.488       .  S
C896       C1028   1.464   1_655  S
C896        O904   1.263       .  A
C897        O902   1.262       .  A
C897        O900   1.264       .  A
Cd898       O905   2.432       .  S
Cd898       O904   2.429       .  S
Cd898       O903   2.484       .  S
Cd898       O899   2.461       .  S
Cd898       O902   2.452       .  S
Cd898       O900   2.473       .  S
C901        C980   1.481       .  S
C901        O905   1.264       .  A
O906        C909   1.265       .  A
O906       Cd911   2.449       .  S
C907       C1039   1.468   1_655  S
C907        O916   1.264       .  A
C907        O912   1.266       .  A
O908        C914   1.266       .  A
O908       Cd911   2.483       .  S
C909        C923   1.466       .  S
C909        O917   1.265       .  A
C910        C982   1.485       .  S
C910        O915   1.267       .  A
C910        O913   1.264       .  A
Cd911       O918   2.474       .  S
Cd911       O917   2.470       .  S
Cd911       O916   2.458       .  S
Cd911       O912   2.493       .  S
Cd911       O915   2.483       .  S
Cd911       O913   2.456       .  S
C914        O918   1.265       .  A
C919        N920   1.361   1_545  A
N920        C921   1.357       .  A
C921        N922   1.356   1_565  A
C923        N924   1.359       .  A
N925        C930   1.356       .  A
N925        C929   1.358       .  A
N925        H957   1.037       .  S
N926        C933   1.350       .  A
N926        C934   1.352       .  A
N927        C932   1.351       .  A
N927        C931   1.350       .  A
N927        H958   1.043   1_545  S
N928        C935   1.351       .  A
N928        C936   1.355       .  A
C929        C937   1.390       .  A
C929        C945   1.425       .  A
C930        C946   1.417       .  A
C930        C938   1.385       .  A
C931        C939   1.387       .  A
C931        C948   1.407       .  A
C932        C947   1.409   1_545  A
C932        C940   1.386       .  A
C933        C945   1.417   1_545  A
C933        C941   1.390       .  A
C934        C948   1.407       .  A
C934        C942   1.383       .  A
C935        C943   1.389       .  A
C935        C946   1.417       .  A
C936        C944   1.384   1_455  A
C936        C947   1.418       .  A
C937        C938   1.373       .  A
C937        H949   1.081       .  S
C938        H950   1.083       .  S
C939        C940   1.374       .  A
C939        H951   1.082       .  S
C940        H952   1.082   1_455  S
C941        C942   1.374       .  A
C941        H953   1.082       .  S
C942        H954   1.082       .  S
C943        C944   1.366   1_455  A
C943        H955   1.080       .  S
C944        H956   1.081       .  S
C946       C1029   1.482       .  S
C947        C981   1.533   1_455  S
C948       C1046   1.479       .  S
N959        C964   1.356       .  A
N959        C963   1.351       .  A
N959        H991   1.043       .  S
N960        C967   1.356       .  A
N960        C968   1.355       .  A
N961        C966   1.356       .  A
N961        C965   1.352       .  A
N961        H992   1.040       .  S
N962        C969   1.345       .  A
N962        C970   1.345       .  A
C963        C971   1.390       .  A
C963        C979   1.416       .  A
C964        C980   1.410       .  A
C964        C972   1.385       .  A
C965        C973   1.391       .  A
C965        C982   1.419       .  A
C966        C981   1.416   1_545  A
C966        C974   1.383       .  A
C967        C979   1.427   1_545  A
C967        C975   1.390       .  A
C968        C982   1.419       .  A
C968        C976   1.384       .  A
C969        C977   1.386       .  A
C969        C980   1.403       .  A
C970        C978   1.387       .  A
C970        C981   1.408       .  A
C971        C972   1.374       .  A
C971        H983   1.082   1_565  S
C972        H984   1.082       .  S
C973        C974   1.371       .  A
C973        H985   1.079       .  S
C974        H986   1.082   1_545  S
C975        C976   1.374       .  A
C975        H987   1.080       .  S
C976        H988   1.083       .  S
C977        C978   1.375       .  A
C977        H989   1.082       .  S
C978        H990   1.082       .  S
O993        C996   1.266       .  A
O993       Cd998   2.492       .  S
C994       C1023   1.468       .  S
C994       O1003   1.266       .  A
C994        O999   1.264       .  A
O995       C1001   1.267       .  A
O995       Cd998   2.469       .  S
C996       O1004   1.263       .  A
C997       C1033   1.469       .  S
C997       O1002   1.265       .  A
C997       O1000   1.265       .  A
Cd998      O1005   2.437       .  S
Cd998      O1004   2.463       .  S
Cd998      O1003   2.487       .  S
Cd998       O999   2.444       .  S
Cd998      O1002   2.483       .  S
Cd998      O1000   2.465       .  S
C1001      O1005   1.263       .  A
O1006      C1009   1.263       .  A
O1006     Cd1011   2.459       .  S
C1007      O1016   1.264       .  A
C1007      O1012   1.267       .  A
O1008      C1014   1.262       .  A
O1008     Cd1011   2.448       .  S
C1009      C1021   1.466       .  S
C1009      O1017   1.264       .  A
C1010      O1015   1.265       .  A
C1010      O1013   1.264       .  A
Cd1011     O1018   2.472       .  S
Cd1011     O1017   2.479       .  S
Cd1011     O1016   2.453       .  S
Cd1011     O1012   2.491       .  S
Cd1011     O1015   2.493       .  S
Cd1011     O1013   2.431       .  S
C1014      C1042   1.461       .  S
C1014      O1018   1.264       .  A
C1019      N1020   1.360       .  A
N1020      C1021   1.357       .  A
C1021      N1022   1.356       .  A
C1023      N1024   1.358       .  A
O1025      C1028   1.266       .  A
O1025     Cd1030   2.499       .  S
C1026      C1053   1.463       .  S
C1026      O1035   1.266       .  A
C1026      O1031   1.264       .  A
O1027      C1033   1.265       .  A
O1027     Cd1030   2.480       .  S
C1028      O1036   1.263       .  A
C1029      O1034   1.267       .  A
C1029      O1032   1.264       .  A
Cd1030     O1037   2.467       .  S
Cd1030     O1036   2.433       .  S
Cd1030     O1035   2.474       .  S
Cd1030     O1031   2.439       .  S
Cd1030     O1034   2.474       .  S
Cd1030     O1032   2.453       .  S
C1033      O1037   1.265       .  A
O1038      C1041   1.262       .  A
O1038     Cd1043   2.441       .  S
C1039      O1048   1.265       .  A
C1039      O1044   1.267       .  A
O1040      C1046   1.266       .  A
O1040     Cd1043   2.493       .  S
C1041      C1055   1.466       .  S
C1041      O1049   1.265       .  A
C1042      O1047   1.263       .  A
C1042      O1045   1.264       .  A
Cd1043     O1050   2.422       .  S
Cd1043     O1049   2.495       .  S
Cd1043     O1048   2.452       .  S
Cd1043     O1044   2.484       .  S
Cd1043     O1047   2.454       .  S
Cd1043     O1045   2.472       .  S
C1046      O1050   1.263       .  A
C1051      N1056   1.363   1_565  A
N1052      C1053   1.356       .  A
N1054      C1055   1.354       .  A
C1055      N1056   1.358       .  A
