geometry optimzed in LAMMPS
_audit_creation_date              2020-11-30 
_audit_creation_method            'lammps2cif' 
_symmetry_space_group_name_H-M    'P1' 
_symmetry_Int_Tables_number       1 
_symmetry_cell_setting            triclinic 
loop_ 
_symmetry_equiv_pos_as_xyz 
  x,y,z 
_cell_length_a                    58.066835960852 
_cell_length_b                    57.91246753927463 
_cell_length_c                    58.06034137393325 
_cell_angle_alpha                 89.90141478071973 
_cell_angle_beta                  90.11036759264658 
_cell_angle_gamma                 90.03039331956387 
loop_ 
_atom_site_label 
_atom_site_type_symbol 
_atom_site_fract_x 
_atom_site_fract_y 
_atom_site_fract_z 
_atom_site_charge 
C1          C  0.71929390  0.71840914  0.74867395     0.03350
C2          C  0.70913889  0.73753717  0.73780477    -0.12800
C3          C  0.71882422  0.74685766  0.71768593     0.00850
C4          C  0.73907788  0.73714344  0.70872961    -0.11330
C5          C  0.74941448  0.71799968  0.71941007     0.03340
C6          C  0.73991793  0.70938927  0.73991347    -0.10750
H7          H  0.69283571  0.74412889  0.74403783     0.08940
H8          H  0.74611456  0.74376553  0.69276164     0.06460
H9          H  0.74790763  0.69479129  0.74844231     0.06310
C10         C  0.17925339  0.71818394  0.20738315     0.03350
C11         C  0.19022390  0.70886980  0.18800852    -0.12800
C12         C  0.21041669  0.71891990  0.17937554     0.00850
C13         C  0.21948199  0.73863522  0.19015503    -0.11330
C14         C  0.20838619  0.74852836  0.20923410     0.03340
C15         C  0.18795738  0.73838420  0.21743001    -0.10750
H16         H  0.18387259  0.69292369  0.18059800     0.08940
H17         H  0.23585252  0.74546538  0.18438854     0.06460
H18         H  0.17963074  0.74531469  0.23260918     0.06310
C19         C  0.71813518  0.20893045  0.74849929     0.03350
C20         C  0.70810153  0.18974807  0.73750761    -0.12800
C21         C  0.71868762  0.17953991  0.71825797     0.00850
C22         C  0.73944006  0.18887347  0.70994417    -0.11330
C23         C  0.74914322  0.20842326  0.72023544     0.03340
C24         C  0.73885769  0.21791687  0.73981746    -0.10750
H25         H  0.69125544  0.18383058  0.74284225     0.08940
H26         H  0.74720803  0.18194182  0.69446863     0.06460
H27         H  0.74639606  0.23322283  0.74746711     0.06310
C28         C  0.17935892  0.20766482  0.71947133     0.03350
C29         C  0.18923496  0.18740544  0.71053164    -0.12800
C30         C  0.20915867  0.17797715  0.72044851     0.00850
C31         C  0.21872323  0.18843747  0.73998450    -0.11330
C32         C  0.20935272  0.20882986  0.74891750     0.03340
C33         C  0.18942973  0.21817761  0.73885482    -0.10750
H34         H  0.18231214  0.17988256  0.69490788     0.08940
H35         H  0.23434394  0.18140432  0.74745517     0.06460
H36         H  0.18291123  0.23457598  0.74497924     0.06310
C37         C  0.20791182  0.71850585  0.74958439     0.03350
C38         C  0.18798332  0.70942914  0.73941097    -0.12800
C39         C  0.17979258  0.71800026  0.71830859     0.00850
C40         C  0.19115837  0.73679813  0.70803417    -0.11330
C41         C  0.21048495  0.74694495  0.71863737     0.03340
C42         C  0.21844061  0.73792713  0.73970123    -0.10750
H43         H  0.17955276  0.69475046  0.74735376     0.08940
H44         H  0.18587368  0.74265127  0.69111063     0.06460
H45         H  0.23359563  0.74519957  0.74780267     0.06310
C46         C  0.71798901  0.17987998  0.20878237     0.03350
C47         C  0.70896371  0.19049090  0.18900193    -0.12800
C48         C  0.71982667  0.20987274  0.17933742     0.00850
C49         C  0.73998835  0.21846927  0.18967076    -0.11330
C50         C  0.74880762  0.20830843  0.20976997     0.03340
C51         C  0.73804265  0.18866990  0.21895375    -0.10750
H52         H  0.69272046  0.18446568  0.18203013     0.08940
H53         H  0.74798701  0.23398521  0.18293471     0.06460
H54         H  0.74440627  0.18114557  0.23484511     0.06310
O55         O  0.43809018  0.48798180  0.09099189    -0.72720
O56         O  0.48547415  0.43872112  0.08892266    -0.73700
O57         O  0.43750537  0.43948184  0.09148216    -0.62320
O58         O  0.48675298  0.48714428  0.08848451    -0.70730
O59         O  0.48935873  0.48817571  0.12660039    -0.70290
O60         O  0.43913288  0.43967953  0.12973182    -0.61540
O61         O  0.48846345  0.43866851  0.12701542    -0.74050
O62         O  0.44021113  0.48913381  0.12920531    -0.72830
Cu63       Cu  0.46188767  0.46341786  0.08874725     1.04560
Cu64       Cu  0.46436244  0.46396937  0.12959025     1.04330
C65         C  0.43146458  0.49617718  0.11023176     0.93470
C66         C  0.49425307  0.43055683  0.10736075     0.92610
C67         C  0.43072950  0.43183577  0.11091987     0.84760
C68         C  0.49612133  0.49501686  0.10677797     0.91030
N69         N  0.33417912  0.33802982  0.09000330    -0.27070
N70         N  0.34222315  0.34150739  0.06903884    -0.34930
C71         C  0.35948831  0.35690293  0.06993865     0.01270
C72         C  0.36224614  0.36367213  0.09256829     0.07300
C73         C  0.34591377  0.35144067  0.10491664    -0.05800
H74         H  0.36919439  0.36287035  0.05519245     0.07960
H75         H  0.34313115  0.35185479  0.12332903     0.09160
Cu76       Cu  0.32849796  0.32552475  0.04040755     0.44170
Cu77       Cu  0.30844271  0.31400904  0.09604610     0.41990
Cu78       Cu  0.28133560  0.28477338  0.04566517     0.43880
N79         N  0.31183246  0.31057609  0.01278029    -0.34460
N80         N  0.29454340  0.29576588  0.01406712    -0.28710
C81         C  0.28795452  0.29010619  0.99245651    -0.04810
C82         C  0.30181789  0.30207894  0.97707102     0.07400
C83         C  0.31665890  0.31480031  0.99063601     0.01200
H84         H  0.27409257  0.27833601  0.98829106     0.08850
H85         H  0.33003388  0.32646261  0.98490495     0.07930
N86         N  0.27401839  0.27752696  0.08015299    -0.35910
N87         N  0.28414070  0.28782690  0.09783657    -0.28090
C88         C  0.27635412  0.27847762  0.11749660    -0.03320
C89         C  0.26053281  0.26147945  0.11214393     0.05290
C90         C  0.25928575  0.26147609  0.08829916     0.03380
H91         H  0.28170066  0.28393603  0.13448936     0.08480
H92         H  0.24882210  0.25029606  0.07764649     0.07320
N93         N  0.33740682  0.59222665  0.08931194    -0.27070
N94         N  0.34176174  0.58509264  0.06820170    -0.34930
C95         C  0.35771249  0.56835427  0.06896216     0.01270
C96         C  0.36387114  0.56501009  0.09168817     0.07300
C97         C  0.35072035  0.58039106  0.10423393    -0.05800
H98         H  0.36433470  0.55930791  0.05409269     0.07960
H99         H  0.35045719  0.58245017  0.12274677     0.09160
Cu100      Cu  0.32578746  0.59908525  0.03976440     0.44170
Cu101      Cu  0.31262509  0.61705743  0.09537265     0.41990
Cu102      Cu  0.28314139  0.64464689  0.04530439     0.43880
N103        N  0.31032248  0.61549483  0.01234110    -0.34460
N104        N  0.29489544  0.63222475  0.01365042    -0.28710
C105        C  0.28917921  0.63880348  0.99202996    -0.04810
C106        C  0.30169951  0.62544721  0.97666278     0.07400
C107        C  0.31482548  0.61096290  0.99022019     0.01200
H108        H  0.27693220  0.65224786  0.98784467     0.08850
H109        H  0.32698109  0.59804933  0.98451015     0.07930
N110        N  0.27639638  0.65190570  0.07992794    -0.35910
N111        N  0.28705796  0.64181001  0.09742482    -0.28090
C112        C  0.27901888  0.65044344  0.11724661    -0.03320
C113        C  0.26263364  0.66703043  0.11226912     0.05290
C114        C  0.26122811  0.66732957  0.08839085     0.03380
H115        H  0.28466765  0.64472101  0.13405772     0.08480
H116        H  0.25030305  0.67825710  0.07791790     0.07320
N117        N  0.59399696  0.33822810  0.08944361    -0.27070
N118        N  0.58841060  0.34303654  0.06795060    -0.34930
C119        C  0.57132987  0.35852242  0.06767534     0.01270
C120        C  0.56567371  0.36389442  0.09016004     0.07300
C121        C  0.58052046  0.35074850  0.10363775    -0.05800
H122        H  0.56334991  0.36509749  0.05214061     0.07960
H123        H  0.58086510  0.34960003  0.12222889     0.09160
Cu124      Cu  0.60313414  0.32728914  0.03996421     0.44170
Cu125      Cu  0.61876600  0.31338128  0.09638171     0.41990
Cu126      Cu  0.64387502  0.28152539  0.04549722     0.43880
N127        N  0.61752300  0.31072189  0.01227012    -0.34460
N128        N  0.63255683  0.29367066  0.01360176    -0.28710
C129        C  0.63823899  0.28714416  0.99200432    -0.04810
C130        C  0.62605988  0.30090456  0.97661481     0.07400
C131        C  0.61317786  0.31555114  0.99015445     0.01200
H132        H  0.65030861  0.27355873  0.98785134     0.08850
H133        H  0.60142843  0.32887423  0.98443996     0.07930
N134        N  0.65189010  0.27567293  0.08008535    -0.35910
N135        N  0.64326876  0.28730064  0.09772774    -0.28090
C136        C  0.65294675  0.27957915  0.11727675    -0.03320
C137        C  0.66843622  0.26232482  0.11187804     0.05290
C138        C  0.66717014  0.26012787  0.08816628     0.03380
H139        H  0.64874317  0.28597956  0.13424612     0.08480
H140        H  0.67700342  0.24844603  0.07750014     0.07320
N141        N  0.59164039  0.59198849  0.08911907    -0.27070
N142        N  0.58530657  0.58857920  0.06757979    -0.34930
C143        C  0.56931263  0.57197853  0.06672983     0.01270
C144        C  0.56533722  0.56414306  0.08885782     0.07300
C145        C  0.57960252  0.57746452  0.10278823    -0.05800
H146        H  0.56128383  0.56604309  0.05100090     0.07960
H147        H  0.58157704  0.57620071  0.12127873     0.09160
Cu148      Cu  0.59975710  0.60527582  0.04003268     0.44170
Cu149      Cu  0.61729096  0.61597343  0.09647687     0.41990
Cu150      Cu  0.64580025  0.64532021  0.04546088     0.43880
N151        N  0.61607372  0.61979584  0.01230347    -0.34460
N152        N  0.63320001  0.63473787  0.01357351    -0.28710
C153        C  0.63984725  0.64026341  0.99196011    -0.04810
C154        C  0.62617170  0.62794127  0.97665121     0.07400
C155        C  0.61139154  0.61523071  0.99022744     0.01200
H156        H  0.65369371  0.65203117  0.98775010     0.08850
H157        H  0.59816105  0.60336293  0.98456743     0.07930
N158        N  0.65282485  0.65167057  0.08011655    -0.35910
N159        N  0.64268741  0.64137176  0.09781833    -0.28090
C160        C  0.65100424  0.65035923  0.11743942    -0.03320
C161        C  0.66700634  0.66722341  0.11203082     0.05290
C162        C  0.66788053  0.66741019  0.08820206     0.03380
H163        H  0.64576704  0.64479055  0.13441970     0.08480
H164        H  0.67827863  0.67857543  0.07747195     0.07320
O165        O  0.43938340  0.48900069  0.79952673    -0.72720
O166        O  0.48865296  0.43932996  0.79998810    -0.73700
O167        O  0.43921286  0.43943712  0.79989964    -0.62320
O168        O  0.48887035  0.48894611  0.79973625    -0.70730
O169        O  0.48685541  0.48972910  0.83789605    -0.70290
O170        O  0.44062400  0.43954177  0.83811023    -0.61540
O171        O  0.48927647  0.44134302  0.83817015    -0.74050
O172        O  0.43865372  0.48747675  0.83773240    -0.72830
Cu173      Cu  0.46407952  0.46413333  0.79830923     1.04560
Cu174      Cu  0.46392474  0.46446706  0.83917708     1.04330
C175        C  0.43095566  0.49557820  0.81878776     0.93470
C176        C  0.49696957  0.43294285  0.81939410     0.92610
C177        C  0.43185809  0.43214734  0.81937169     0.84760
C178        C  0.49518931  0.49743702  0.81909207     0.91030
N179        N  0.33804401  0.33418680  0.83843076    -0.27070
N180        N  0.34258974  0.34041922  0.85979034    -0.34930
C181        C  0.35809375  0.35752318  0.85966367     0.01270
C182        C  0.36377604  0.36242275  0.83706082     0.07300
C183        C  0.35079096  0.34717944  0.82393888    -0.05800
H184        H  0.36457184  0.36595993  0.87497747     0.07960
H185        H  0.34996519  0.34621692  0.80535178     0.09160
Cu186      Cu  0.32682820  0.32607438  0.88807515     0.44170
Cu187      Cu  0.31315491  0.30939700  0.83191035     0.41990
Cu188      Cu  0.28200418  0.28397396  0.88296063     0.43880
N189        N  0.31080661  0.31116182  0.91592418    -0.34460
N190        N  0.29420591  0.29560533  0.91473835    -0.28710
C191        C  0.28801897  0.28969100  0.93639924    -0.04810
C192        C  0.30153615  0.30223335  0.95168518     0.07400
C193        C  0.31568446  0.31558429  0.93801105     0.01200
H194        H  0.27483979  0.27719592  0.94066820     0.08850
H195        H  0.32871568  0.32769314  0.94362171     0.07930
N196        N  0.27509259  0.27677480  0.84836891    -0.35910
N197        N  0.28636651  0.28571498  0.83064248    -0.28090
C198        C  0.27774321  0.27698307  0.81106243    -0.03320
C199        C  0.26014492  0.26183694  0.81645777     0.05290
C200        C  0.25893748  0.26212951  0.84031444     0.03380
H201        H  0.28390239  0.28145173  0.79405506     0.08480
H202        H  0.24764399  0.25199782  0.85113447     0.07320
N203        N  0.33719261  0.59328083  0.83778362    -0.27070
N204        N  0.34114423  0.58640998  0.85910145    -0.34930
C205        C  0.35606701  0.56879459  0.85891778     0.01270
C206        C  0.36190876  0.56414519  0.83633535     0.07300
C207        C  0.34980588  0.58019429  0.82328752    -0.05800
H208        H  0.36224291  0.56003288  0.87419777     0.07960
H209        H  0.34967210  0.58179048  0.80472066     0.09160
Cu210      Cu  0.32595557  0.60102610  0.88754932     0.44170
Cu211      Cu  0.31354613  0.61942683  0.83127247     0.41990
Cu212      Cu  0.28600017  0.64760032  0.88281919     0.43880
N213        N  0.31102652  0.61675025  0.91554953    -0.34460
N214        N  0.29627566  0.63406391  0.91442100    -0.28710
C215        C  0.29025617  0.64010744  0.93605424    -0.04810
C216        C  0.30194540  0.62580410  0.95130080     0.07400
C217        C  0.31487096  0.61129296  0.93762615     0.01200
H218        H  0.27842403  0.65386499  0.94032547     0.08850
H219        H  0.32638845  0.59772246  0.94323225     0.07930
N220        N  0.27879654  0.65519607  0.84848013    -0.35910
N221        N  0.28821453  0.64483008  0.83046903    -0.28090
C222        C  0.27843413  0.65305013  0.81115998    -0.03320
C223        C  0.26227466  0.66949107  0.81713601     0.05290
C224        C  0.26298448  0.67046012  0.84093375     0.03380
H225        H  0.28275061  0.64736219  0.79396074     0.08480
H226        H  0.25224439  0.68086499  0.85202699     0.07320
N227        N  0.59110879  0.33541842  0.83816792    -0.27070
N228        N  0.58707296  0.34191823  0.85954285    -0.34930
C229        C  0.57190457  0.35932614  0.85951272     0.01270
C230        C  0.56596441  0.36417142  0.83696724     0.07300
C231        C  0.57828453  0.34850532  0.82377672    -0.05800
H232        H  0.56566149  0.36784413  0.87485003     0.07960
H233        H  0.57845283  0.34720652  0.80519274     0.09160
Cu234      Cu  0.60248927  0.32696764  0.88775687     0.44170
Cu235      Cu  0.61521053  0.30981911  0.83147708     0.41990
Cu236      Cu  0.64244677  0.28022713  0.88256376     0.43880
N237        N  0.61731106  0.31064595  0.91553448    -0.34460
N238        N  0.63198534  0.29327557  0.91430703    -0.28710
C239        C  0.63779239  0.28682532  0.93593622    -0.04810
C240        C  0.62604144  0.30092274  0.95124910     0.07400
C241        C  0.61331514  0.31573335  0.93763017     0.01200
H242        H  0.64952604  0.27294082  0.94016159     0.08850
H243        H  0.60180152  0.32925076  0.94328024     0.07930
N244        N  0.64982496  0.27350886  0.84805038    -0.35910
N245        N  0.64065905  0.28459465  0.83025613    -0.28090
C246        C  0.65035480  0.27683219  0.81077939    -0.03320
C247        C  0.66618657  0.25995720  0.81641172     0.05290
C248        C  0.66531646  0.25812657  0.84015084     0.03380
H249        H  0.64599373  0.28291267  0.79368905     0.08480
H250        H  0.67558499  0.24686271  0.85093248     0.07320
N251        N  0.59338828  0.59079846  0.83847174    -0.27070
N252        N  0.58822850  0.58539309  0.85992137    -0.34930
C253        C  0.57114853  0.56986128  0.86003858     0.01270
C254        C  0.56499463  0.56522890  0.83750463     0.07300
C255        C  0.57966407  0.57861472  0.82415920    -0.05800
H256        H  0.56360584  0.56269554  0.87549623     0.07960
H257        H  0.57971243  0.58008729  0.80558220     0.09160
Cu258      Cu  0.60347421  0.60054804  0.88807645     0.44170
Cu259      Cu  0.61773841  0.61612934  0.83171236     0.41990
Cu260      Cu  0.64330988  0.64737142  0.88261807     0.43880
N261        N  0.61814012  0.61712623  0.91573899    -0.34460
N262        N  0.63294152  0.63439377  0.91436651    -0.28710
C263        C  0.63866185  0.64107150  0.93591461    -0.04810
C264        C  0.62664770  0.62728951  0.95133533     0.07400
C265        C  0.61389778  0.61238580  0.93787875     0.01200
H266        H  0.65033456  0.65504695  0.94000257     0.08850
H267        H  0.60220116  0.59905549  0.94367160     0.07930
N268        N  0.64991946  0.65466750  0.84813356    -0.35910
N269        N  0.64117916  0.64321260  0.83040624    -0.28090
C270        C  0.65010488  0.65173992  0.81087462    -0.03320
C271        C  0.66506052  0.66946904  0.81637669     0.05290
C272        C  0.66450074  0.67090948  0.84015994     0.03380
H273        H  0.64609342  0.64530935  0.79384682     0.08480
H274        H  0.67460346  0.68227245  0.85096170     0.07320
O275        O  0.48920791  0.08987371  0.43975008    -0.72720
O276        O  0.44109852  0.08855143  0.48771856    -0.73700
O277        O  0.44048079  0.08883098  0.43957944    -0.62320
O278        O  0.48898646  0.08980988  0.48799166    -0.70730
O279        O  0.48907357  0.12818282  0.48760688    -0.70290
O280        O  0.43899796  0.12713422  0.43903307    -0.61540
O281        O  0.43962289  0.12677873  0.48863197    -0.74050
O282        O  0.48845643  0.12817411  0.43830060    -0.72830
Cu283      Cu  0.46496317  0.08807319  0.46362485     1.04560
Cu284      Cu  0.46397961  0.12905045  0.46331900     1.04330
C285        C  0.49688230  0.10886864  0.43169678     0.93470
C286        C  0.43311146  0.10708228  0.49636505     0.92610
C287        C  0.43163481  0.10755148  0.43203305     0.84760
C288        C  0.49655231  0.10900611  0.49560946     0.91030
N289        N  0.33775334  0.08967317  0.33392357    -0.27070
N290        N  0.34093994  0.06831766  0.34115712    -0.34930
C291        C  0.35585521  0.06828217  0.35874980     0.01270
C292        C  0.36261100  0.09076726  0.36297118     0.07300
C293        C  0.35084488  0.10399721  0.34678914    -0.05800
H294        H  0.36144998  0.05289926  0.36775702     0.07960
H295        H  0.35126569  0.12257667  0.34490186     0.09160
Cu296      Cu  0.32501925  0.04011680  0.32685191     0.44170
Cu297      Cu  0.31454141  0.09638505  0.30748802     0.41990
Cu298      Cu  0.28543836  0.04503914  0.28004858     0.43880
N299        N  0.31036368  0.01215265  0.31083168    -0.34460
N300        N  0.29574909  0.01330958  0.29341770    -0.28710
C301        C  0.29032576  0.99161516  0.28682976    -0.04810
C302        C  0.30232378  0.97633775  0.30084705     0.07400
C303        C  0.31474467  0.99002562  0.31579969     0.01200
H304        H  0.27890734  0.98732899  0.27272560     0.08850
H305        H  0.32644033  0.98440608  0.32920032     0.07930
N306        N  0.27901991  0.07957358  0.27221703    -0.35910
N307        N  0.28916769  0.09748522  0.28217138    -0.28090
C308        C  0.27989927  0.11700806  0.27382003    -0.03320
C309        C  0.26324822  0.11130472  0.25775442     0.05290
C310        C  0.26317240  0.08740542  0.25713927     0.03380
H311        H  0.28483594  0.13417485  0.27925585     0.08480
H312        H  0.25185408  0.07644246  0.24716769     0.07320
N313        N  0.59120219  0.08947394  0.33500590    -0.26790
N314        N  0.58611184  0.06801189  0.34066148    -0.34930
C315        C  0.57068135  0.06805705  0.35776393     0.01270
C316        C  0.56576742  0.09071490  0.36337355     0.07300
C317        C  0.57890192  0.10395342  0.34839141    -0.05800
H318        H  0.56362729  0.05263677  0.36557070     0.07960
H319        H  0.57999717  0.12259286  0.34778327     0.09160
Cu320      Cu  0.60101177  0.03966930  0.32545255     0.44170
Cu321      Cu  0.61584896  0.09605095  0.31005884     0.41990
Cu322      Cu  0.64407884  0.04482458  0.28169597     0.43880
N323        N  0.61643410  0.01177110  0.30994543    -0.34460
N324        N  0.63235968  0.01297388  0.29377294    -0.28710
C325        C  0.63827699  0.99126753  0.28761973    -0.04810
C326        C  0.62528427  0.97592709  0.30064539     0.07400
C327        C  0.61173728  0.98962154  0.31453764     0.01200
H328        H  0.65088678  0.98700805  0.27461295     0.08850
H329        H  0.59920481  0.98398328  0.32710579     0.07930
N330        N  0.65123215  0.07949543  0.27475963    -0.35910
N331        N  0.64130409  0.09729247  0.28503243    -0.28090
C332        C  0.65006248  0.11691673  0.27643189    -0.03320
C333        C  0.66627327  0.11151276  0.25983538     0.05290
C334        C  0.66651108  0.08753479  0.25925548     0.03380
H335        H  0.64494600  0.13394610  0.28205955     0.08480
H336        H  0.67658597  0.07657531  0.24810810     0.07320
N337        N  0.33446166  0.08979770  0.59019850    -0.27070
N338        N  0.33917305  0.06823854  0.58472046    -0.34930
C339        C  0.35609386  0.06786880  0.56912554     0.01270
C340        C  0.36265422  0.09036082  0.56439639     0.07300
C341        C  0.34842242  0.10394044  0.57805341    -0.05800
H342        H  0.36327673  0.05222248  0.56196189     0.07960
H343        H  0.34872061  0.12253294  0.57970708     0.09160
Cu344      Cu  0.32353511  0.04017286  0.59972730     0.44170
Cu345      Cu  0.30978164  0.09673273  0.61507847     0.41990
Cu346      Cu  0.28116187  0.04545795  0.64374881     0.43880
N347        N  0.30875940  0.01230401  0.61592927    -0.34460
N348        N  0.29294311  0.01355419  0.63218764    -0.28710
C349        C  0.28726029  0.99188215  0.63874316    -0.04810
C350        C  0.30032790  0.97652212  0.62589688     0.07400
C351        C  0.31368592  0.99015828  0.61171416     0.01200
H352        H  0.27471975  0.98766384  0.65184885     0.08850
H353        H  0.32612118  0.98448424  0.59909056     0.07930
N354        N  0.27471106  0.08014083  0.65089935    -0.35910
N355        N  0.28496632  0.09794231  0.64083118    -0.28090
C356        C  0.27696417  0.11756297  0.65010355    -0.03320
C357        C  0.26101220  0.11205058  0.66689460     0.05290
C358        C  0.25985923  0.08816714  0.66677779     0.03380
H359        H  0.28227960  0.13461941  0.64469356     0.08480
H360        H  0.24932383  0.07736357  0.67773889     0.07320
N361        N  0.59393889  0.08927105  0.58893757    -0.27070
N362        N  0.58533169  0.06830580  0.58665388    -0.34930
C363        C  0.56746330  0.06895198  0.57200813     0.01270
C364        C  0.56472879  0.09143314  0.56452213     0.07300
C365        C  0.58191187  0.10393344  0.57543747    -0.05800
H366        H  0.55728916  0.05410316  0.56705497     0.07960
H367        H  0.58500509  0.12231423  0.57417922     0.09160
Cu368      Cu  0.59872303  0.03987267  0.60328304     0.44170
Cu369      Cu  0.62048599  0.09564316  0.61201246     0.41990
Cu370      Cu  0.64354831  0.04553788  0.64575063     0.43880
N371        N  0.61476433  0.01222809  0.61887269    -0.34460
N372        N  0.63125181  0.01366577  0.63452127    -0.28710
C373        C  0.63779643  0.99206944  0.64048632    -0.04810
C374        C  0.62470382  0.97653525  0.62783458     0.07400
C375        C  0.61038395  0.99000199  0.61439072     0.01200
H376        H  0.65109584  0.98802023  0.65292296     0.08850
H377        H  0.59765133  0.98415723  0.60209181     0.07930
N378        N  0.65213016  0.08009374  0.65114854    -0.35910
N379        N  0.64431020  0.09759182  0.63865632    -0.28090
C380        C  0.65374594  0.11727123  0.64640004    -0.03320
C381        C  0.66821825  0.11209253  0.66461593     0.05290
C382        C  0.66663315  0.08837521  0.66729472     0.03380
H383        H  0.64994766  0.13419869  0.63946993     0.08480
H384        H  0.67564031  0.07785328  0.67981266     0.07320
O385        O  0.48895542  0.83846668  0.48555371    -0.72720
O386        O  0.43890734  0.83700673  0.43897163    -0.73700
O387        O  0.44065393  0.83865490  0.48767739    -0.62320
O388        O  0.48688002  0.83686708  0.43736079    -0.70730
O389        O  0.48818718  0.79857853  0.43948881    -0.70290
O390        O  0.43901027  0.80037984  0.48892699    -0.61540
O391        O  0.43858714  0.79865257  0.43957455    -0.74050
O392        O  0.48834297  0.80028208  0.48873097    -0.72830
Cu393      Cu  0.46377466  0.83896932  0.46239701     1.04560
Cu394      Cu  0.46347714  0.79800671  0.46423543     1.04330
C395        C  0.49674299  0.81988386  0.49446650     0.93470
C396        C  0.43125672  0.81782318  0.43138551     0.92610
C397        C  0.43260724  0.82010434  0.49642922     0.84760
C398        C  0.49503739  0.81761868  0.43060246     0.91030
N399        N  0.33258497  0.83789644  0.33903049    -0.27070
N400        N  0.34115120  0.85885239  0.34148312    -0.34930
C401        C  0.35879874  0.85820278  0.35635774     0.01270
C402        C  0.36148064  0.83572569  0.36389569     0.07300
C403        C  0.34449091  0.82320715  0.35263171    -0.05800
H404        H  0.36899620  0.87304439  0.36128768     0.07960
H405        H  0.34155994  0.80478277  0.35359232     0.09160
Cu406      Cu  0.32841099  0.88732944  0.32454031     0.44170
Cu407      Cu  0.30637597  0.83171614  0.31547600     0.41990
Cu408      Cu  0.28456979  0.88225835  0.28129591     0.43880
N409        N  0.31301299  0.91520799  0.30885894    -0.34460
N410        N  0.29686685  0.91395365  0.29285221    -0.28710
C411        C  0.29038157  0.93559675  0.28706427    -0.04810
C412        C  0.30311952  0.95095983  0.30025397     0.07400
C413        C  0.31721879  0.93737272  0.31378752     0.01200
H414        H  0.27721905  0.93978433  0.27452734     0.08850
H415        H  0.32958301  0.94308863  0.32651705     0.07930
N416        N  0.27538269  0.84789482  0.27599363    -0.35910
N417        N  0.28270740  0.83027429  0.28862005    -0.28090
C418        C  0.27277571  0.81081573  0.28094836    -0.03320
C419        C  0.25849970  0.81628371  0.26266092     0.05290
C420        C  0.26072687  0.83991863  0.25983840     0.03380
H421        H  0.27606764  0.79383254  0.28800193     0.08480
H422        H  0.25201849  0.85060917  0.24725094     0.07320
N423        N  0.59446068  0.83800543  0.33991122    -0.27070
N424        N  0.58557743  0.85887953  0.34174447    -0.34930
C425        C  0.56743657  0.85817415  0.35597638     0.01270
C426        C  0.56477552  0.83572612  0.36362333     0.07300
C427        C  0.58231714  0.82333090  0.35325617    -0.05800
H428        H  0.55695788  0.87294016  0.36044933     0.07960
H429        H  0.58551704  0.80498332  0.35468546     0.09160
Cu430      Cu  0.59885729  0.88715097  0.32479852     0.44170
Cu431      Cu  0.62133708  0.83175568  0.31734848     0.41990
Cu432      Cu  0.64429030  0.88143639  0.28293290     0.43880
N433        N  0.61490261  0.91474251  0.30917903    -0.34460
N434        N  0.63160974  0.91334421  0.29381899    -0.28710
C435        C  0.63814782  0.93498285  0.28796085    -0.04810
C436        C  0.62483751  0.95047942  0.30039555     0.07400
C437        C  0.61038561  0.93695190  0.31357377     0.01200
H438        H  0.65165555  0.93909189  0.27581796     0.08850
H439        H  0.59752664  0.94274574  0.32570920     0.07930
N440        N  0.65261755  0.84670398  0.27779932    -0.35910
N441        N  0.64471272  0.82942087  0.29048117    -0.28090
C442        C  0.65342632  0.80950283  0.28260117    -0.03320
C443        C  0.66737400  0.81415058  0.26382713     0.05290
C444        C  0.66655225  0.83801389  0.26142771     0.03380
H445        H  0.64989182  0.79292890  0.29037940     0.08480
H446        H  0.67518886  0.84833671  0.24852239     0.07320
N447        N  0.33497390  0.83820068  0.59046676    -0.27070
N448        N  0.34127146  0.85971583  0.58648360    -0.34930
C449        C  0.35842273  0.85998168  0.57111314     0.01270
C450        C  0.36327967  0.83748313  0.56488508     0.07300
C451        C  0.34797010  0.82400713  0.57743889    -0.05800
H452        H  0.36678796  0.87550109  0.56495270     0.07960
H453        H  0.34685071  0.80536367  0.57766146     0.09160
Cu454      Cu  0.32648820  0.88772176  0.60228585     0.44170
Cu455      Cu  0.30966669  0.83106494  0.61467187     0.41990
Cu456      Cu  0.28021550  0.88199699  0.64234405     0.43880
N457        N  0.31046490  0.91539078  0.61746096    -0.34460
N458        N  0.29325412  0.91399382  0.63223371    -0.28710
C459        C  0.28682195  0.93562062  0.63812686    -0.04810
C460        C  0.30074021  0.95109937  0.62628157     0.07400
C461        C  0.31545124  0.93758100  0.61345662     0.01200
H462        H  0.27293611  0.93973538  0.64981406     0.08850
H463        H  0.32875270  0.94336576  0.60177577     0.07930
N464        N  0.27342713  0.84726953  0.64927385    -0.35910
N465        N  0.28445567  0.82952840  0.64000920    -0.28090
C466        C  0.27669131  0.80989210  0.64957901    -0.03320
C467        C  0.25978656  0.81535989  0.66533131     0.05290
C468        C  0.25808345  0.83918127  0.66468863     0.03380
H469        H  0.28285586  0.79281257  0.64526689     0.08480
H470        H  0.24700945  0.84990401  0.67513813     0.07320
N471        N  0.59059708  0.83802812  0.59252456    -0.27070
N472        N  0.58546994  0.85964790  0.58758882    -0.34930
C473        C  0.57013571  0.86022797  0.57037733     0.01270
C474        C  0.56534783  0.83781085  0.56380769     0.07300
C475        C  0.57842674  0.82404008  0.57844563    -0.05800
H476        H  0.56303954  0.87594065  0.56321691     0.07960
H477        H  0.57951044  0.80539235  0.57840885     0.09160
Cu478      Cu  0.60030757  0.88746007  0.60359345     0.44170
Cu479      Cu  0.61499420  0.83083364  0.61772845     0.41990
Cu480      Cu  0.64329164  0.88202778  0.64701749     0.43880
N481        N  0.61592587  0.91527608  0.61883653    -0.34460
N482        N  0.63191895  0.91406062  0.63498411    -0.28710
C483        C  0.63802234  0.93578372  0.64096165    -0.04810
C484        C  0.62506872  0.95109999  0.62780309     0.07400
C485        C  0.61136981  0.93739271  0.61404330     0.01200
H486        H  0.65072481  0.94007456  0.65392069     0.08850
H487        H  0.59881000  0.94298907  0.60144157     0.07930
N488        N  0.65006448  0.84719660  0.65374149    -0.35910
N489        N  0.64024738  0.82945633  0.64315063    -0.28090
C490        C  0.64935349  0.80977271  0.65132216    -0.03320
C491        C  0.66555199  0.81514014  0.66794916     0.05290
C492        C  0.66554674  0.83904785  0.66904331     0.03380
H493        H  0.64443037  0.79271251  0.64555330     0.08480
H494        H  0.67643035  0.84982631  0.67967256     0.07320
C495        C  0.71909552  0.74864870  0.20935606     0.03350
C496        C  0.70925473  0.73983053  0.18920569    -0.12800
C497        C  0.71913094  0.72086866  0.17795695     0.00850
C498        C  0.73950481  0.71118330  0.18673302    -0.11330
C499        C  0.74914810  0.71928566  0.20747462     0.03340
C500        C  0.73903710  0.73843518  0.21841379    -0.10750
H501        H  0.69313937  0.74696749  0.18297569     0.08940
H502        H  0.74690493  0.69630678  0.17827250     0.06460
H503        H  0.74563548  0.74436312  0.23484730     0.06310
O504        O  0.12595624  0.43873860  0.48874763    -0.72720
O505        O  0.12877392  0.48860871  0.43907414    -0.73700
O506        O  0.12685581  0.48819866  0.48843812    -0.62320
O507        O  0.12841065  0.43896713  0.43919695    -0.70730
O508        O  0.09014977  0.43918111  0.43824379    -0.70290
O509        O  0.08873354  0.48886182  0.48557396    -0.61540
O510        O  0.09056457  0.48791503  0.43779433    -0.74050
O511        O  0.08791657  0.44043773  0.48649238    -0.72830
Cu512      Cu  0.12897871  0.46354134  0.46387497     1.04560
Cu513      Cu  0.08815450  0.46403151  0.46191828     1.04330
C514        C  0.10605945  0.43225953  0.49578482     0.93470
C515        C  0.10968030  0.49643081  0.43118364     0.92610
C516        C  0.10737257  0.49651784  0.49441348     0.84760
C517        C  0.10938197  0.43126239  0.43121505     0.91030
N518        N  0.08951061  0.33768060  0.33427176    -0.27070
N519        N  0.06852920  0.34093541  0.34232784    -0.34930
C520        C  0.06932046  0.35607650  0.35977636     0.01270
C521        C  0.09190093  0.36291128  0.36269107     0.07300
C522        C  0.10434673  0.35100525  0.34622126    -0.05800
H523        H  0.05451157  0.36190087  0.36943840     0.07960
H524        H  0.12274406  0.35168732  0.34339538     0.09160
Cu525      Cu  0.03995031  0.32518549  0.32836198     0.44170
Cu526      Cu  0.09550313  0.31431420  0.30793870     0.41990
Cu527      Cu  0.04478913  0.28590770  0.28020438     0.43880
N528        N  0.01218806  0.31039944  0.31189781    -0.34460
N529        N  0.01329974  0.29608800  0.29422256    -0.28710
C530        C  0.99162714  0.29033912  0.28791078    -0.04810
C531        C  0.97640259  0.30172618  0.30238219     0.07400
C532        C  0.99011326  0.31420624  0.31727184     0.01200
H533        H  0.98730683  0.27892416  0.27381894     0.08850
H534        H  0.98452927  0.32544434  0.33102955     0.07930
N535        N  0.07922202  0.27928939  0.27215355    -0.35910
N536        N  0.09699856  0.28921760  0.28250568    -0.28090
C537        C  0.11656725  0.28016404  0.27424034    -0.03320
C538        C  0.11107908  0.26389340  0.25773653     0.05290
C539        C  0.08721695  0.26380129  0.25679939     0.03380
H540        H  0.13362762  0.28506173  0.27995464     0.08480
H541        H  0.07642880  0.25274407  0.24634891     0.07320
N542        N  0.09004053  0.59154464  0.33471539    -0.27070
N543        N  0.06869559  0.58553148  0.33962320    -0.34930
C544        C  0.06886534  0.56979855  0.35654254     0.01270
C545        C  0.09146896  0.56565906  0.36284311     0.07300
C546        C  0.10456439  0.57956265  0.34843173    -0.05800
H547        H  0.05354854  0.56209165  0.36382824     0.07960
H548        H  0.12310203  0.58143375  0.34848252     0.09160
Cu549      Cu  0.04021259  0.59994218  0.32410757     0.44170
Cu550      Cu  0.09639442  0.61697443  0.31034177     0.41990
Cu551      Cu  0.04499364  0.64565890  0.28281737     0.43880
N552        N  0.01220093  0.61601861  0.30937898    -0.34460
N553        N  0.01330641  0.63303439  0.29423857    -0.28710
C554        C  0.99162399  0.63953327  0.28872352    -0.04810
C555        C  0.97638801  0.62581290  0.30109779     0.07400
C556        C  0.99012321  0.61118905  0.31392430     0.01200
H557        H  0.98730490  0.65318276  0.27673062     0.08850
H558        H  0.98455520  0.59800253  0.32589790     0.07930
N559        N  0.07948795  0.65309276  0.27568004    -0.35910
N560        N  0.09737261  0.64284279  0.28553816    -0.28090
C561        C  0.11683606  0.65142806  0.27652439    -0.03320
C562        C  0.11121120  0.66788592  0.26014994     0.05290
C563        C  0.08731318  0.66848665  0.26010504     0.03380
H564        H  0.13391849  0.64593870  0.28157968     0.08480
H565        H  0.07630325  0.67877764  0.24911742     0.07320
N566        N  0.08930149  0.33453850  0.59162978    -0.27070
N567        N  0.06776821  0.33809059  0.58536350    -0.34930
C568        C  0.06706944  0.35441974  0.56906364     0.01270
C569        C  0.08930621  0.36188733  0.56471272     0.07300
C570        C  0.10308844  0.34873305  0.57934347    -0.05800
H571        H  0.05132869  0.36060747  0.56121106     0.07960
H572        H  0.12154269  0.34991585  0.58154922     0.09160
Cu573      Cu  0.04002446  0.32212816  0.60051255     0.44170
Cu574      Cu  0.09663422  0.31082322  0.61749449     0.41990
Cu575      Cu  0.04568148  0.28399840  0.64830095     0.43880
N576        N  0.01231584  0.30811711  0.61753249    -0.34460
N577        N  0.01368717  0.29408887  0.63543069    -0.28710
C578        C  0.99210680  0.28840727  0.64208903    -0.04810
C579        C  0.97667321  0.29953458  0.62751708     0.07400
C580        C  0.99018939  0.31182152  0.61228596     0.01200
H581        H  0.98799874  0.27697619  0.65625375     0.08850
H582        H  0.98445097  0.32270173  0.59825013     0.07930
N583        N  0.08034703  0.27664506  0.65444390    -0.35910
N584        N  0.09801172  0.28580264  0.64321570    -0.28090
C585        C  0.11757774  0.27612770  0.65090736    -0.03320
C586        C  0.11215331  0.26015117  0.66775223     0.05290
C587        C  0.08842372  0.26107403  0.66971357     0.03380
H588        H  0.13457173  0.28060405  0.64473569     0.08480
H589        H  0.07774084  0.25076858  0.68100325     0.07320
N590        N  0.08935931  0.58939128  0.59306802    -0.27070
N591        N  0.06789648  0.58547094  0.58673520    -0.34930
C592        C  0.06761019  0.57062973  0.56910209     0.01270
C593        C  0.09006059  0.56485955  0.56380493     0.07300
C594        C  0.10351971  0.57686481  0.57955428    -0.05800
H595        H  0.05209863  0.56457563  0.56070747     0.07960
H596        H  0.12212223  0.57708282  0.58058883     0.09160
Cu597      Cu  0.04000304  0.60122612  0.60155181     0.44170
Cu598      Cu  0.09634506  0.61329912  0.61876681     0.41990
Cu599      Cu  0.04575193  0.64669575  0.64249408     0.43880
N600        N  0.01241979  0.61761521  0.61627193    -0.34460
N601        N  0.01382135  0.63458964  0.63136252    -0.28710
C602        C  0.99225801  0.64102020  0.63727059    -0.04810
C603        C  0.97683031  0.62726041  0.62518607     0.07400
C604        C  0.99029750  0.61272113  0.61212391     0.01200
H605        H  0.98815724  0.65450985  0.64945514     0.08850
H606        H  0.98453355  0.59943358  0.60038075     0.07930
N607        N  0.08034524  0.65235724  0.65048996    -0.35910
N608        N  0.09786369  0.63999078  0.64264084    -0.28090
C609        C  0.11743343  0.64778250  0.65220579    -0.03320
C610        C  0.11216348  0.66592582  0.66666932     0.05290
C611        C  0.08853285  0.66851024  0.66504740     0.03380
H612        H  0.13435223  0.64086216  0.64862583     0.08480
H613        H  0.07799102  0.68085878  0.67418305     0.07320
O614        O  0.83972723  0.44247472  0.48783481    -0.72720
O615        O  0.83667152  0.48673209  0.43590626    -0.73700
O616        O  0.83892456  0.49073804  0.48404735    -0.62320
O617        O  0.83732405  0.43848329  0.43988605    -0.70730
O618        O  0.79908959  0.43906210  0.43963803    -0.70290
O619        O  0.80098187  0.48953639  0.48805795    -0.61540
O620        O  0.79859368  0.48868698  0.43871503    -0.74050
O621        O  0.80168764  0.43992669  0.48922297    -0.72830
Cu622      Cu  0.83935005  0.46463905  0.46186478     1.04560
Cu623      Cu  0.79860203  0.46428055  0.46397626     1.04330
C624        C  0.82156332  0.43385409  0.49669183     0.93470
C625        C  0.81744836  0.49496464  0.42916808     0.92610
C626        C  0.82051195  0.49837233  0.49325933     0.84760
C627        C  0.81816114  0.43061846  0.43253911     0.91030
N628        N  0.83773658  0.33828765  0.33395381    -0.27070
N629        N  0.85889385  0.34139121  0.34167916    -0.34930
C630        C  0.85847814  0.35587702  0.35963466     0.01270
C631        C  0.83590910  0.36230187  0.36359209     0.07300
C632        C  0.82313711  0.35101806  0.34679794    -0.05800
H633        H  0.87358003  0.36133652  0.36911780     0.07960
H634        H  0.80464173  0.35144687  0.34456563     0.09160
Cu635      Cu  0.88738525  0.32559387  0.32771775     0.44170
Cu636      Cu  0.83131930  0.31520036  0.30734957     0.41990
Cu637      Cu  0.88241312  0.28476727  0.28181951     0.43880
N638        N  0.91530879  0.31042991  0.31201950    -0.34460
N639        N  0.91408677  0.29548030  0.29490438    -0.28710
C640        C  0.93569897  0.28968078  0.28856167    -0.04810
C641        C  0.95103026  0.30166704  0.30249058     0.07400
C642        C  0.93742594  0.31456079  0.31708639     0.01200
H643        H  0.93990084  0.27779680  0.27484492     0.08850
H644        H  0.94311147  0.32635389  0.33035764     0.07930
N645        N  0.84801198  0.27814465  0.27382543    -0.35910
N646        N  0.83012806  0.28900461  0.28290153    -0.28090
C647        C  0.81067128  0.27976142  0.27444626    -0.03320
C648        C  0.81637085  0.26228685  0.25925729     0.05290
C649        C  0.84024302  0.26176929  0.25930441     0.03380
H650        H  0.79355176  0.28536816  0.27916024     0.08480
H651        H  0.85125035  0.24992478  0.25008379     0.07320
N652        N  0.83738860  0.59347356  0.33660927    -0.27070
N653        N  0.85859092  0.58635977  0.34072206    -0.34930
C654        C  0.85801495  0.56869996  0.35565439     0.01270
C655        C  0.83531339  0.56441517  0.36135820     0.07300
C656        C  0.82260878  0.58059922  0.34914100    -0.05800
H657        H  0.87306238  0.55956068  0.36183023     0.07960
H658        H  0.80406375  0.58234119  0.34876113     0.09160
Cu659      Cu  0.88731881  0.60075542  0.32560813     0.44170
Cu660      Cu  0.83107393  0.61934235  0.31264694     0.41990
Cu661      Cu  0.88239446  0.64787655  0.28573314     0.43880
N662        N  0.91525942  0.61677641  0.31063025    -0.34460
N663        N  0.91404872  0.63423157  0.29599547    -0.28710
C664        C  0.93566526  0.64039634  0.28994955    -0.04810
C665        C  0.95099650  0.62604587  0.30147847     0.07400
C666        C  0.93737540  0.61136916  0.31435325     0.01200
H667        H  0.93987631  0.65426758  0.27818474     0.08850
H668        H  0.94305537  0.59771890  0.32575790     0.07930
N669        N  0.84803001  0.65539398  0.27816093    -0.35910
N670        N  0.83004331  0.64461583  0.28722136    -0.28090
C671        C  0.81071413  0.65262338  0.27729696    -0.03320
C672        C  0.81664710  0.66945368  0.26151129     0.05290
C673        C  0.84042321  0.67084179  0.26251856     0.03380
H674        H  0.79353311  0.64664995  0.28135653     0.08480
H675        H  0.85143647  0.68174052  0.25213773     0.07320
N676        N  0.83960624  0.33432570  0.59009520    -0.27070
N677        N  0.86105087  0.33643112  0.58303604    -0.34930
C678        C  0.86226881  0.35283879  0.56683997     0.01270
C679        C  0.84051135  0.36209096  0.56362094     0.07300
C680        C  0.82640386  0.34964126  0.57850150    -0.05800
H681        H  0.87806342  0.35770782  0.55831107     0.07960
H682        H  0.80814498  0.35207094  0.58124907     0.09160
Cu683      Cu  0.88816938  0.31906753  0.59774885     0.44170
Cu684      Cu  0.83186943  0.31084512  0.61604684     0.41990
Cu685      Cu  0.88219029  0.28264462  0.64695735     0.43880
N686        N  0.91569308  0.30589511  0.61571137    -0.34460
N687        N  0.91426794  0.29257195  0.63413238    -0.28710
C688        C  0.93584461  0.28783976  0.64158705    -0.04810
C689        C  0.95130057  0.29891612  0.62702713     0.07400
C690        C  0.93781303  0.31012793  0.61095162     0.01200
H691        H  0.93993826  0.27730864  0.65644543     0.08850
H692        H  0.94356150  0.32078354  0.59676720     0.07930
N693        N  0.84730462  0.27620578  0.65305960    -0.35910
N694        N  0.82992666  0.28594272  0.64185617    -0.28090
C695        C  0.81005589  0.27732106  0.64989962    -0.03320
C696        C  0.81484471  0.26160232  0.66728285     0.05290
C697        C  0.83871273  0.26125345  0.66864021     0.03380
H698        H  0.79340694  0.28205754  0.64306589     0.08480
H699        H  0.84914904  0.25104488  0.68026672     0.07320
N700        N  0.83824614  0.59033260  0.59348586    -0.27070
N701        N  0.85969629  0.58505546  0.58827797    -0.34930
C702        C  0.85984842  0.56960371  0.57117300     0.01270
C703        C  0.83734019  0.56470886  0.56512030     0.07300
C704        C  0.82395849  0.57810347  0.57975124    -0.05800
H705        H  0.87532087  0.56279127  0.56336787     0.07960
H706        H  0.80539926  0.57967843  0.57969656     0.09160
Cu707      Cu  0.88787412  0.60037194  0.60326642     0.44170
Cu708      Cu  0.83157696  0.61572194  0.61782142     0.41990
Cu709      Cu  0.88292698  0.64782168  0.64196063     0.43880
N710        N  0.91576608  0.61706444  0.61730639    -0.34460
N711        N  0.91460733  0.63473276  0.63159720    -0.28710
C712        C  0.93624353  0.64138829  0.63705331    -0.04810
C713        C  0.95149179  0.62710918  0.62545145     0.07400
C714        C  0.93783507  0.61198306  0.61318167     0.01200
H715        H  0.94051100  0.65554387  0.64842289     0.08850
H716        H  0.94343635  0.59824409  0.60191467     0.07930
N717        N  0.84851152  0.65464208  0.64935355    -0.35910
N718        N  0.83067224  0.64284512  0.64127067    -0.28090
C719        C  0.81133129  0.65108477  0.65082231    -0.03320
C720        C  0.81708333  0.66899030  0.66544663     0.05290
C721        C  0.84079203  0.67083808  0.66406759     0.03380
H722        H  0.79426417  0.64437404  0.64744546     0.08480
H723        H  0.85174163  0.68245831  0.67371329     0.07320
C724        C  0.20861272  0.17948974  0.20971998     0.03350
C725        C  0.21850491  0.18912887  0.18990903    -0.12800
C726        C  0.20932331  0.20925705  0.17993776     0.00850
C727        C  0.18967930  0.21943515  0.18976970    -0.11330
C728        C  0.17952602  0.20985553  0.20955614     0.03340
C729        C  0.18874110  0.18953800  0.21901886    -0.10750
H730        H  0.23418898  0.18172969  0.18302616     0.08940
H731        H  0.18331965  0.23570915  0.18308568     0.06460
H732        H  0.18107095  0.18213055  0.23434382     0.06310
C733        C  0.81879640  0.41131716  0.41606343    -0.05250
C734        C  0.83361347  0.39284516  0.42085115    -0.32680
C735        C  0.83801568  0.37598901  0.40433206     0.36580
C736        C  0.82792818  0.37762367  0.38230587    -0.05600
C737        C  0.81190902  0.39529765  0.37790453    -0.32570
C738        C  0.80727932  0.41214477  0.39470255     0.36480
H739        H  0.84236098  0.39184361  0.43733579     0.16850
O740        O  0.85278564  0.35830135  0.40971326    -0.60070
H741        H  0.80401441  0.39680069  0.36104730     0.16870
O742        O  0.79318463  0.43037396  0.38934426    -0.60170
H743        H  0.77747983  0.42521247  0.39362255     0.43860
H744        H  0.84273230  0.34535047  0.41460946     0.43820
C745        C  0.82445616  0.41677441  0.51558618    -0.05250
C746        C  0.84574440  0.41611501  0.52704737    -0.32680
C747        C  0.85081084  0.39894584  0.54311991     0.36580
C748        C  0.83442414  0.38170977  0.54822836    -0.05600
C749        C  0.81252375  0.38306001  0.53786559    -0.32570
C750        C  0.80743411  0.40048760  0.52168964     0.36480
H751        H  0.85887116  0.42890096  0.52336329     0.16850
O752        O  0.87163517  0.39972410  0.55431729    -0.60070
H753        H  0.79958210  0.37014844  0.54170774     0.16870
O754        O  0.78627437  0.40066303  0.51118041    -0.60170
H755        H  0.77628384  0.40991734  0.52147091     0.43860
H756        H  0.88337143  0.39619637  0.54243113     0.43820
C757        C  0.81781710  0.51158797  0.40994556    -0.05250
C758        C  0.83213035  0.50671036  0.39117447    -0.32680
C759        C  0.83667392  0.52342708  0.37450230     0.36580
C760        C  0.82711376  0.54565248  0.37652846    -0.05600
C761        C  0.81153710  0.55018470  0.39446429    -0.32570
C762        C  0.80685269  0.53324074  0.41120758     0.36480
H763        H  0.84049256  0.49003237  0.38985933     0.16850
O764        O  0.85116718  0.51808530  0.35666289    -0.60070
H765        H  0.80410814  0.56724207  0.39626072     0.16870
O766        O  0.79336159  0.53872235  0.42976410    -0.60170
H767        H  0.77742445  0.53487987  0.42495261     0.43860
H768        H  0.84089809  0.51350934  0.34378701     0.43820
C769        C  0.82239426  0.51737737  0.51017560    -0.05250
C770        C  0.80728253  0.51876166  0.52903377    -0.32680
C771        C  0.81112420  0.53488907  0.54674090     0.36580
C772        C  0.83029860  0.54979017  0.54564920    -0.05600
C773        C  0.84437928  0.54931310  0.52606481    -0.32570
C774        C  0.84064015  0.53333546  0.50852756     0.36480
H775        H  0.79316310  0.50662917  0.53060752     0.16850
O776        O  0.79714086  0.53471231  0.56573917    -0.60070
H777        H  0.85877898  0.56111514  0.52450560     0.16870
O778        O  0.85491247  0.53355873  0.48970868    -0.60170
H779        H  0.86931372  0.52592223  0.49488411     0.43860
H780        H  0.78349808  0.54400726  0.56128761     0.43820
C781        C  0.12760678  0.24904526  0.24524050    -0.05250
C782        C  0.14749736  0.24153364  0.25675019    -0.32680
C783        C  0.16412880  0.22834799  0.24544760     0.36580
C784        C  0.16124989  0.22261688  0.22203200    -0.05600
C785        C  0.14133345  0.23007745  0.21042918    -0.32570
C786        C  0.12450310  0.24310309  0.22189769     0.36480
H787        H  0.15026479  0.24595280  0.27466813     0.16850
O788        O  0.18380823  0.22228708  0.25708961    -0.60070
H789        H  0.13892619  0.22593147  0.19239392     0.16870
O790        O  0.10551904  0.25053699  0.20993127    -0.60170
H791        H  0.10977242  0.26597647  0.20386055     0.43860
H792        H  0.17896497  0.21028748  0.26829132     0.43820
C793        C  0.10914031  0.41273333  0.41403016    -0.05250
C794        C  0.11301818  0.41785118  0.39073818    -0.32680
C795        C  0.10871593  0.40118901  0.37375216     0.36580
C796        C  0.10029191  0.37930037  0.38011330    -0.05600
C797        C  0.09732108  0.37397355  0.40347555    -0.32570
C798        C  0.10187694  0.39048017  0.42041522     0.36480
H799        H  0.11823375  0.43509147  0.38566252     0.16850
O800        O  0.11085537  0.40707443  0.35096973    -0.60070
H801        H  0.09076174  0.35719153  0.40852218     0.16870
O802        O  0.09806490  0.38510841  0.44311116    -0.60170
H803        H  0.11335062  0.38061599  0.44930881     0.43860
H804        H  0.12684292  0.40281055  0.34679330     0.43820
C805        C  0.10329555  0.41542950  0.51490279    -0.05250
C806        C  0.12063912  0.39935322  0.52033171    -0.32680
C807        C  0.11692524  0.38219675  0.53717315     0.36580
C808        C  0.09559176  0.38097554  0.54875631    -0.05600
C809        C  0.07897202  0.39793562  0.54418352    -0.32570
C810        C  0.08252472  0.41482124  0.52748342     0.36480
H811        H  0.13677173  0.39957567  0.51099671     0.16850
O812        O  0.13370039  0.36602600  0.54114219    -0.60070
H813        H  0.06281108  0.39810243  0.55344973     0.16870
O814        O  0.06555611  0.43093714  0.52389908    -0.60170
H815        H  0.05377291  0.42303487  0.51434367     0.43860
H816        H  0.14483471  0.37364082  0.55164797     0.43820
C817        C  0.10863882  0.51618127  0.41514239    -0.05250
C818        C  0.09120071  0.53249826  0.41875161    -0.32680
C819        C  0.08635508  0.54939214  0.40233729     0.36580
C820        C  0.09910223  0.55031360  0.38176540    -0.05600
C821        C  0.11780836  0.53515543  0.37884238    -0.32570
C822        C  0.12266249  0.51809935  0.39547815     0.36480
H823        H  0.08070920  0.53170803  0.43416440     0.16850
O824        O  0.06921372  0.56512027  0.40664876    -0.60070
H825        H  0.12784605  0.53573368  0.36314431     0.16870
O826        O  0.13981546  0.50236769  0.39146980    -0.60170
H827        H  0.15391367  0.50940213  0.39809816     0.43860
H828        H  0.05460866  0.55623936  0.40606314     0.43820
C829        C  0.10581727  0.51552464  0.51119847    -0.05250
C830        C  0.08926815  0.53270746  0.50738649    -0.32680
C831        C  0.08515852  0.54970149  0.52381420     0.36580
C832        C  0.09727836  0.54946291  0.54486236    -0.05600
C833        C  0.11487534  0.53313358  0.54819469    -0.32570
C834        C  0.11927387  0.51622753  0.53141428     0.36480
H835        H  0.07919208  0.53277569  0.49164675     0.16850
O836        O  0.06889451  0.56626280  0.51924095    -0.60070
H837        H  0.12440880  0.53276542  0.56424824     0.16870
O838        O  0.13541110  0.49948872  0.53573481    -0.60170
H839        H  0.15020709  0.50614514  0.53039317     0.43860
H840        H  0.07764353  0.57961561  0.51307416     0.43820
C841        C  0.76780691  0.70618213  0.21934837    -0.05250
C842        C  0.78597881  0.71811130  0.23013122    -0.32680
C843        C  0.80232158  0.70633465  0.24352881     0.36580
C844        C  0.80071809  0.68224527  0.24629127    -0.05600
C845        C  0.78286003  0.67026159  0.23530649    -0.32570
C846        C  0.76658704  0.68192100  0.22182527     0.36480
H847        H  0.78722718  0.73671370  0.22856680     0.16850
O848        O  0.81915022  0.71865469  0.25467116    -0.60070
H849        H  0.78131824  0.65172853  0.23742474     0.16870
O850        O  0.74861838  0.66960118  0.21259715    -0.60170
H851        H  0.75538875  0.66056073  0.19978904     0.43860
H852        H  0.81266288  0.72220403  0.27005519     0.43820
C853        C  0.68042381  0.79731402  0.24956552    -0.05250
C854        C  0.70021952  0.80454193  0.23754480    -0.32680
C855        C  0.71303709  0.78890467  0.22432853     0.36580
C856        C  0.70616048  0.76570323  0.22299067    -0.05600
C857        C  0.68628329  0.75849447  0.23451768    -0.32570
C858        C  0.67346564  0.77397372  0.24776922     0.36480
H859        H  0.70598146  0.82229205  0.23857365     0.16850
O860        O  0.73220882  0.79643521  0.21278381    -0.60070
H861        H  0.68066226  0.74068798  0.23322801     0.16870
O862        O  0.65359773  0.76625321  0.25793435    -0.60170
H863        H  0.65867924  0.75621259  0.27084114     0.43860
H864        H  0.72665321  0.80064605  0.19716837     0.43820
C865        C  0.41441067  0.81851754  0.41242810    -0.05250
C866        C  0.39264147  0.80819628  0.41462809    -0.32680
C867        C  0.37527543  0.81272803  0.39830621     0.36580
C868        C  0.37981976  0.82754451  0.37955032    -0.05600
C869        C  0.40201644  0.83661945  0.37679222    -0.32570
C870        C  0.41922589  0.83210948  0.39293906     0.36480
H871        H  0.38870832  0.79779158  0.42964077     0.16850
O872        O  0.35364741  0.80381974  0.40162181    -0.60070
H873        H  0.40591049  0.84776455  0.36229758     0.16870
O874        O  0.44061264  0.84169680  0.38992861    -0.60170
H875        H  0.44872387  0.83103151  0.37934997     0.43860
H876        H  0.34534437  0.81561155  0.41077528     0.43820
C877        C  0.41607384  0.82203492  0.51559207    -0.05250
C878        C  0.39635235  0.80800143  0.51656588    -0.32680
C879        C  0.37917476  0.81216389  0.53309351     0.36580
C880        C  0.38186691  0.83035257  0.54901326    -0.05600
C881        C  0.40224974  0.84335654  0.54874441    -0.32570
C882        C  0.41924142  0.83928373  0.53234765     0.36480
H883        H  0.39372521  0.79460814  0.50382147     0.16850
O884        O  0.35942134  0.79918438  0.53274171    -0.60070
H885        H  0.40491914  0.85707015  0.56113757     0.16870
O886        O  0.43878265  0.85261672  0.53259452    -0.60170
H887        H  0.45034165  0.84340996  0.54122212     0.43860
H888        H  0.34870014  0.80765692  0.52244266     0.43820
C889        C  0.51225915  0.81802506  0.41210157    -0.05250
C890        C  0.50663638  0.82937347  0.39153875    -0.32680
C891        C  0.52343803  0.83383848  0.37498899     0.36580
C892        C  0.54643584  0.82734925  0.37905678    -0.05600
C893        C  0.55195218  0.81493082  0.39912743    -0.32570
C894        C  0.53496155  0.81029431  0.41570723     0.36480
H895        H  0.48926842  0.83551773  0.38865503     0.16850
O896        O  0.51734918  0.84527946  0.35519026    -0.60070
H897        H  0.56964029  0.81004684  0.40255643     0.16870
O898        O  0.54112326  0.80021724  0.43619836    -0.60170
H899        H  0.53917654  0.78339693  0.43370811     0.43860
H900        H  0.51441027  0.83297257  0.34369542     0.43820
C901        C  0.51590333  0.82177654  0.51112344    -0.05250
C902        C  0.53173000  0.83980371  0.50811299    -0.32680
C903        C  0.54854244  0.84440995  0.52465156     0.36580
C904        C  0.54980683  0.83089141  0.54480613    -0.05600
C905        C  0.53494906  0.81186588  0.54723845    -0.32570
C906        C  0.51805230  0.80720913  0.53048147     0.36480
H907        H  0.53084002  0.85072767  0.49295669     0.16850
O908        O  0.56402258  0.86190153  0.52071887    -0.60070
H909        H  0.53573695  0.80126310  0.56260928     0.16870
O910        O  0.50278395  0.78949420  0.53401253    -0.60170
H911        H  0.51042465  0.77561438  0.52760779     0.43860
H912        H  0.55498416  0.87640845  0.52156671     0.43820
C913        C  0.22090389  0.16099363  0.22240755    -0.05250
C914        C  0.22773759  0.14074052  0.21104086    -0.32680
C915        C  0.24094279  0.12395619  0.22248571     0.36580
C916        C  0.24793802  0.12761699  0.24545814    -0.05600
C917        C  0.24092837  0.14778833  0.25677785    -0.32570
C918        C  0.22743744  0.16429572  0.24554698     0.36480
H919        H  0.22306371  0.13808445  0.19316425     0.16850
O920        O  0.24814032  0.10482589  0.21062698    -0.60070
H921        H  0.24605814  0.15092077  0.27444877     0.16870
O922        O  0.22201340  0.18433467  0.25687105    -0.60170
H923        H  0.21020574  0.17988816  0.26837650     0.43860
H924        H  0.23460085  0.09438851  0.21020387     0.43820
C925        C  0.41235080  0.10596646  0.41556577    -0.05250
C926        C  0.41162302  0.11979955  0.39568029    -0.32680
C927        C  0.39490362  0.11580797  0.37857480     0.36580
C928        C  0.37854147  0.09802337  0.38153833    -0.05600
C929        C  0.37853282  0.08535129  0.40215515    -0.32570
C930        C  0.39515170  0.08921497  0.41903601     0.36480
H931        H  0.42470508  0.13284301  0.39286316     0.16850
O932        O  0.39550795  0.12850673  0.35863197    -0.60070
H933        H  0.36579993  0.07198504  0.40506450     0.16870
O934        O  0.39472176  0.07611706  0.43875034    -0.60170
H935        H  0.38643179  0.08565650  0.45022781     0.43860
H936        H  0.40558292  0.11967774  0.34805398     0.43820
C937        C  0.38187209  0.09712419  0.54896131    -0.05250
C938        C  0.40020159  0.08161089  0.54637528    -0.32680
C939        C  0.41724430  0.08524923  0.52993685     0.36580
C940        C  0.41649996  0.10493232  0.51560434    -0.05600
C941        C  0.39907690  0.12139627  0.51914532    -0.32570
C942        C  0.38180492  0.11761787  0.53575492     0.36480
H943        H  0.40122352  0.06619964  0.55692279     0.16850
O944        O  0.43477566  0.06944950  0.52820365    -0.60070
H945        H  0.39827384  0.13668718  0.50840254     0.16870
O946        O  0.36422165  0.13325489  0.53780084    -0.60170
H947        H  0.37042800  0.14568041  0.54777692     0.43860
H948        H  0.42809842  0.05614673  0.51976008     0.43820
C949        C  0.51625863  0.10765267  0.41535529    -0.05250
C950        C  0.53325390  0.09097577  0.41949874    -0.32680
C951        C  0.55013357  0.08625697  0.40314200     0.36580
C952        C  0.55030245  0.09832077  0.38208229    -0.05600
C953        C  0.53433666  0.11624533  0.37851081    -0.32570
C954        C  0.51733028  0.12100052  0.39508480     0.36480
H955        H  0.53309871  0.08104421  0.43534518     0.16850
O956        O  0.56662093  0.06996532  0.40800096    -0.60070
H957        H  0.53430409  0.12572433  0.36240890     0.16870
O958        O  0.50087182  0.13734539  0.39050113    -0.60170
H959        H  0.50745675  0.15206254  0.39622545     0.43860
H960        H  0.55844542  0.05491833  0.40794201     0.43820
C961        C  0.54679902  0.09966066  0.54850040    -0.05250
C962        C  0.55289209  0.11152728  0.52828904    -0.32680
C963        C  0.53632611  0.11590086  0.51117325     0.36580
C964        C  0.51348679  0.10846239  0.51438574    -0.05600
C965        C  0.50723948  0.09770970  0.53506819    -0.32570
C966        C  0.52365541  0.09344810  0.55212808     0.36480
H967        H  0.57069761  0.11618782  0.52521595     0.16850
O968        O  0.54299193  0.12556347  0.49066307    -0.60070
H969        H  0.48966163  0.09197107  0.53769459     0.16870
O970        O  0.51705849  0.08249850  0.57201812    -0.60170
H971        H  0.51403274  0.09507983  0.58317527     0.43860
H972        H  0.54087244  0.14242104  0.49270895     0.43820
C973        C  0.41257497  0.41564972  0.82100035    -0.05250
C974        C  0.41130787  0.39610366  0.80676383    -0.32680
C975        C  0.39479626  0.37882151  0.81102589     0.36580
C976        C  0.37928984  0.38123726  0.82955749    -0.05600
C977        C  0.37971462  0.40155601  0.84262042    -0.32570
C978        C  0.39602485  0.41864913  0.83842446     0.36480
H979        H  0.42383755  0.39365374  0.79318593     0.16850
O980        O  0.39479139  0.35922086  0.79781643    -0.60070
H981        H  0.36756471  0.40407273  0.85653183     0.16870
O982        O  0.39597669  0.43810522  0.85187733    -0.60170
H983        H  0.38543459  0.44899503  0.84393897     0.43860
H984        H  0.40527743  0.34835337  0.80586767     0.43820
C985        C  0.55024990  0.38277801  0.82942104    -0.05250
C986        C  0.53286517  0.37848005  0.81310048    -0.32680
C987        C  0.51578166  0.39513001  0.80866994     0.36580
C988        C  0.51605276  0.41622281  0.82072996    -0.05600
C989        C  0.53415384  0.42087735  0.83601492    -0.32570
C990        C  0.55125231  0.40451662  0.84020561     0.36480
H991        H  0.53184192  0.36181442  0.80471127     0.16850
O992        O  0.49794477  0.38988374  0.79407730    -0.60070
H993        H  0.53480737  0.43719814  0.84511003     0.16870
O994        O  0.56864248  0.40978851  0.85533378    -0.60170
H995        H  0.58154484  0.41526739  0.84557800     0.43860
H996        H  0.50342835  0.39436540  0.77853748     0.43820
C997        C  0.41169061  0.51211029  0.81987367    -0.05250
C998        C  0.39393524  0.50756930  0.83554056    -0.32680
C999        C  0.37682055  0.52385366  0.83975582     0.36580
C1000       C  0.37748472  0.54548784  0.82866463    -0.05600
C1001       C  0.39446417  0.54964000  0.81191637    -0.32570
C1002       C  0.41154045  0.53301145  0.80742349     0.36480
H1003       H  0.39362024  0.49143384  0.84500520     0.16850
O1004       O  0.35979117  0.51862330  0.85525531    -0.60070
H1005       H  0.39521902  0.56620030  0.80324444     0.16870
O1006       O  0.42900338  0.53814355  0.79239919    -0.60170
H1007       H  0.42328031  0.53317997  0.77708775     0.43860
H1008       H  0.34678678  0.51278948  0.84581558     0.43820
C1009       C  0.54589824  0.55004571  0.83008960    -0.05250
C1010       C  0.54875661  0.53452130  0.81171523    -0.32680
C1011       C  0.53180903  0.51783219  0.80687556     0.36580
C1012       C  0.51183150  0.51664524  0.82056093    -0.05600
C1013       C  0.50841724  0.53320060  0.83779577    -0.32570
C1014       C  0.52516903  0.54975549  0.84261931     0.36480
H1015       H  0.56459848  0.53457390  0.80189017     0.16850
O1016       O  0.53576127  0.50174162  0.79005099    -0.60070
H1017       H  0.49283895  0.53295505  0.84805638     0.16870
O1018       O  0.52098327  0.56584804  0.85943589    -0.60170
H1019       H  0.52127565  0.55719845  0.87419819     0.43860
H1020       H  0.52991416  0.50887495  0.77564689     0.43820
C1021       C  0.68002344  0.68202419  0.12828440    -0.05250
C1022       C  0.70261263  0.68902259  0.12301314    -0.32680
C1023       C  0.71560701  0.70199046  0.13880614     0.36580
C1024       C  0.70581074  0.70858290  0.15995921    -0.05600
C1025       C  0.68300010  0.70227077  0.16479947    -0.32570
C1026       C  0.67017601  0.68906371  0.14929710     0.36480
H1027       H  0.71042943  0.68396253  0.10686827     0.16850
O1028       O  0.73758028  0.70864135  0.13321737    -0.60070
H1029       H  0.67517523  0.70716396  0.18100557     0.16870
O1030       O  0.64771578  0.68390552  0.15450740    -0.60170
H1031       H  0.64849585  0.67229969  0.16707379     0.43860
H1032       H  0.74708772  0.69449644  0.13473737     0.43820
C1033       C  0.22231791  0.22144120  0.16157260    -0.05250
C1034       C  0.24589504  0.22573022  0.16485102    -0.32680
C1035       C  0.25854393  0.23839055  0.14872049     0.36580
C1036       C  0.24774810  0.24680637  0.12864645    -0.05600
C1037       C  0.22436748  0.24181842  0.12487411    -0.32570
C1038       C  0.21156394  0.22949489  0.14131644     0.36480
H1039       H  0.25449990  0.21968219  0.18030085     0.16850
O1040       O  0.28166447  0.24175438  0.15235188    -0.60070
H1041       H  0.21583354  0.24805243  0.10946483     0.16870
O1042       O  0.18874878  0.22489006  0.13720024    -0.60170
H1043       H  0.18061510  0.23971107  0.13980194     0.43860
H1044       H  0.28270393  0.25317839  0.16502140     0.43820
C1045       C  0.37968045  0.37994972  0.10121084    -0.05250
C1046       C  0.40300772  0.37485366  0.09785328    -0.32680
C1047       C  0.41993536  0.39124007  0.10286437     0.36580
C1048       C  0.41361575  0.41318600  0.11098679    -0.05600
C1049       C  0.39036884  0.41801797  0.11534978    -0.32570
C1050       C  0.37335967  0.40148298  0.11047890     0.36480
H1051       H  0.40804005  0.35835434  0.09066598     0.16850
O1052       O  0.44257404  0.38611124  0.09859883    -0.60070
H1053       H  0.38531754  0.43499887  0.12127277     0.16870
O1054       O  0.35059751  0.40701013  0.11346523    -0.60170
H1055       H  0.34563493  0.41390838  0.09861547     0.43860
H1056       H  0.44903685  0.38131686  0.11368947     0.43820
C1057       C  0.51113932  0.41157967  0.10532290    -0.05250
C1058       C  0.52993870  0.40984935  0.12052372    -0.32680
C1059       C  0.54756904  0.39367945  0.11654769     0.36580
C1060       C  0.54642324  0.37907775  0.09716145    -0.05600
C1061       C  0.52693015  0.37999601  0.08291533    -0.32570
C1062       C  0.50941930  0.39591820  0.08685998     0.36480
H1063       H  0.53153313  0.42175286  0.13481286     0.16850
O1064       O  0.56655355  0.39354741  0.13061917    -0.60070
H1065       H  0.52534017  0.36851826  0.06828353     0.16870
O1066       O  0.49094848  0.39648998  0.07207259    -0.60170
H1067       H  0.48192706  0.38237759  0.07553821     0.43860
H1068       H  0.56193616  0.38438265  0.14429567     0.43820
C1069       C  0.41311351  0.51352466  0.10999215    -0.05250
C1070       C  0.41840405  0.53688858  0.11346368    -0.32680
C1071       C  0.40195186  0.55396774  0.10869313     0.36580
C1072       C  0.38011471  0.54759876  0.10028809    -0.05600
C1073       C  0.37458770  0.52420206  0.09776794    -0.32570
C1074       C  0.39089736  0.50718260  0.10271148     0.36480
H1075       H  0.43563167  0.54192232  0.11862590     0.16850
O1076       O  0.40796684  0.57679951  0.11042350    -0.60070
H1077       H  0.35782114  0.51917605  0.09124456     0.16870
O1078       O  0.38538247  0.48441215  0.09927779    -0.60170
H1079       H  0.37959873  0.47887914  0.11437020     0.43860
H1080       H  0.40338623  0.58141968  0.12619703     0.43820
C1081       C  0.51525598  0.51168939  0.10434845    -0.05250
C1082       C  0.52959493  0.50970023  0.08507286    -0.32680
C1083       C  0.54660636  0.52608760  0.08053305     0.36580
C1084       C  0.54951871  0.54514191  0.09532903    -0.05600
C1085       C  0.53609087  0.54652526  0.11540621    -0.32570
C1086       C  0.51905955  0.52986863  0.12003247     0.36480
H1087       H  0.52748922  0.49539284  0.07323916     0.16850
O1088       O  0.56077198  0.52295882  0.06189153    -0.60070
H1089       H  0.53814550  0.56101256  0.12700938     0.16870
O1090       O  0.50530939  0.53237874  0.13903351    -0.60170
H1091       H  0.51389919  0.52488121  0.15178770     0.43860
H1092       H  0.55082663  0.52505819  0.04813257     0.43820
C1093       C  0.76692111  0.22039467  0.22299489    -0.05250
C1094       C  0.78847360  0.22480616  0.21305112    -0.32680
C1095       C  0.80511819  0.23780114  0.22487809     0.36580
C1096       C  0.80003103  0.24706816  0.24676387    -0.05600
C1097       C  0.77844912  0.24243242  0.25664711    -0.32570
C1098       C  0.76204804  0.22916254  0.24503001     0.36480
H1099       H  0.79228190  0.21839677  0.19595508     0.16850
O1100       O  0.82567270  0.24250617  0.21427420    -0.60070
H1101       H  0.77412573  0.24923095  0.27345453     0.16870
O1102       O  0.74073595  0.22606330  0.25473268    -0.60170
H1103       H  0.74273338  0.21337248  0.26604956     0.43860
H1104       H  0.83481514  0.22810902  0.21569024     0.43820
C1105       C  0.70821549  0.22321073  0.16082963    -0.05250
C1106       C  0.70486102  0.24701178  0.16386412    -0.32680
C1107       C  0.69250409  0.25996664  0.14776138     0.36580
C1108       C  0.68303432  0.24919036  0.12817015    -0.05600
C1109       C  0.68707351  0.22555844  0.12461238    -0.32570
C1110       C  0.69935771  0.21249700  0.14089958     0.36480
H1111       H  0.71139277  0.25557016  0.17912066     0.16850
O1112       O  0.68984034  0.28320472  0.15139011    -0.60070
H1113       H  0.68012082  0.21703592  0.10952693     0.16870
O1114       O  0.70305149  0.18943306  0.13699177    -0.60170
H1115       H  0.68789554  0.18188424  0.13933530     0.43860
H1116       H  0.70260429  0.29062014  0.14278706     0.43820
C1117       C  0.67960635  0.12828788  0.24572766    -0.05250
C1118       C  0.67085737  0.15075290  0.24277334    -0.32680
C1119       C  0.68318427  0.16747130  0.23061857     0.36580
C1120       C  0.70458672  0.16194251  0.22085255    -0.05600
C1121       C  0.71348825  0.13962403  0.22359591    -0.32570
C1122       C  0.70109340  0.12273881  0.23574795     0.36480
H1123       H  0.65435502  0.15555323  0.24994150     0.16850
O1124       O  0.67435458  0.18936909  0.22874845    -0.60070
H1125       H  0.73013365  0.13532222  0.21637583     0.16870
O1126       O  0.71070680  0.10132043  0.23866934    -0.60170
H1127       H  0.70849465  0.09333447  0.22372635     0.43860
H1128       H  0.68134385  0.19814162  0.24165117     0.43820
C1129       C  0.21976214  0.70560876  0.76824529    -0.05250
C1130       C  0.22792023  0.71715583  0.78789978    -0.32680
C1131       C  0.24129334  0.70550864  0.80437860     0.36580
C1132       C  0.24682534  0.68203101  0.80119525    -0.05600
C1133       C  0.23833958  0.67046830  0.78177063    -0.32570
C1134       C  0.22484265  0.68195433  0.76546698     0.36480
H1135       H  0.22430048  0.73535324  0.79022488     0.16850
O1136       O  0.24963498  0.71747518  0.82296992    -0.60070
H1137       H  0.24240934  0.65242592  0.77902280     0.16870
O1138       O  0.21811415  0.67029968  0.74601923    -0.60170
H1139       H  0.20534523  0.66007690  0.75101297     0.43860
H1140       H  0.26492332  0.72332448  0.81808123     0.43820
C1141       C  0.22347055  0.76547183  0.70649675    -0.05250
C1142       C  0.21145688  0.78373559  0.69592049    -0.32680
C1143       C  0.22309626  0.80039102  0.68282736     0.36580
C1144       C  0.24712793  0.79898069  0.68013515    -0.05600
C1145       C  0.25918534  0.78094874  0.69083036    -0.32570
C1146       C  0.24764978  0.76437968  0.70405450     0.36480
H1147       H  0.19290609  0.78489201  0.69752458     0.16850
O1148       O  0.21071334  0.81740457  0.67198632    -0.60070
H1149       H  0.27767734  0.77956155  0.68875921     0.16870
O1150       O  0.26000442  0.74634524  0.71317416    -0.60170
H1151       H  0.26911498  0.75309419  0.72597650     0.43860
H1152       H  0.20711820  0.81114780  0.65649741     0.43820
C1153       C  0.16154133  0.70512619  0.70571032    -0.05250
C1154       C  0.16289587  0.68091369  0.70467996    -0.32680
C1155       C  0.14657304  0.66805681  0.69257617     0.36580
C1156       C  0.12852756  0.67928608  0.68087798    -0.05600
C1157       C  0.12669219  0.70341454  0.68227150    -0.32570
C1158       C  0.14318174  0.71639097  0.69437762     0.36480
H1159       H  0.17692752  0.67183310  0.71303164     0.16850
O1160       O  0.14836461  0.64444048  0.69244124    -0.60070
H1161       H  0.11277717  0.71227415  0.67349250     0.16870
O1162       O  0.14084156  0.73993144  0.69560538    -0.60170
H1163       H  0.14469406  0.74575910  0.68000407     0.43860
H1164       H  0.13852202  0.63909049  0.70533584     0.43820
C1165       C  0.22225634  0.22193832  0.76660162    -0.05250
C1166       C  0.21145623  0.22888031  0.78705027    -0.32680
C1167       C  0.22361346  0.24148438  0.80376739     0.36580
C1168       C  0.24678558  0.24770627  0.79987285    -0.05600
C1169       C  0.25738683  0.24089022  0.77926590    -0.32570
C1170       C  0.24540518  0.22808784  0.76278992     0.36480
H1171       H  0.19357337  0.22448268  0.79006602     0.16850
O1172       O  0.21234182  0.24863732  0.82321656    -0.60070
H1173       H  0.27514644  0.24543431  0.77583127     0.16870
O1174       O  0.25610707  0.22268283  0.74243794    -0.60170
H1175       H  0.26698774  0.21003989  0.74625918     0.43860
H1176       H  0.21133762  0.23474959  0.83318599     0.43820
C1177       C  0.12841583  0.24536678  0.68070491    -0.05250
C1178       C  0.12493565  0.24114738  0.70427092    -0.32680
C1179       C  0.14119724  0.22866152  0.71716827     0.36580
C1180       C  0.16100402  0.21976294  0.70635132    -0.05600
C1181       C  0.16396659  0.22333107  0.68260993    -0.32570
C1182       C  0.14789443  0.23589851  0.66982199     0.36480
H1183       H  0.10992563  0.24810720  0.71286260     0.16850
O1184       O  0.13736547  0.22479255  0.74016548    -0.60070
H1185       H  0.17912314  0.21676273  0.67396124     0.16870
O1186       O  0.15141673  0.23874938  0.64663917    -0.60170
H1187       H  0.14277223  0.22599014  0.63921456     0.43860
H1188       H  0.14012824  0.23985511  0.74779764     0.43820
C1189       C  0.22238232  0.16003827  0.70807311    -0.05250
C1190       C  0.24535248  0.16469724  0.70224949    -0.32680
C1191       C  0.25812529  0.14916571  0.68907668     0.36580
C1192       C  0.24806618  0.12830084  0.68166634    -0.05600
C1193       C  0.22529559  0.12322743  0.68815823    -0.32570
C1194       C  0.21235044  0.13907329  0.70103135     0.36480
H1195       H  0.25333782  0.18076954  0.70751716     0.16850
O1196       O  0.28071553  0.15418090  0.68429808    -0.60070
H1197       H  0.21730719  0.10721631  0.68275520     0.16870
O1198       O  0.19016861  0.13371884  0.70714002    -0.60170
H1199       H  0.18088784  0.13596904  0.69295642     0.43860
H1200       H  0.28024219  0.16689295  0.67282998     0.43820
C1201       C  0.70561477  0.22162668  0.76690675    -0.05250
C1202       C  0.70432704  0.24585744  0.76572792    -0.32680
C1203       C  0.69221454  0.25845628  0.78220262     0.36580
C1204       C  0.68077714  0.24695258  0.80019869    -0.05600
C1205       C  0.68250383  0.22284889  0.80193168    -0.32570
C1206       C  0.69461353  0.21012380  0.78531607     0.36480
H1207       H  0.71239488  0.25515259  0.75168785     0.16850
O1208       O  0.69170022  0.28208375  0.78056034    -0.60070
H1209       H  0.67390787  0.21380456  0.81582509     0.16870
O1210       O  0.69612049  0.18658141  0.78755481    -0.60170
H1211       H  0.68051689  0.18062779  0.78389388     0.43860
H1212       H  0.70462042  0.28752929  0.79034666     0.43820
C1213       C  0.76665180  0.22191499  0.70769693    -0.05250
C1214       C  0.75993863  0.24289552  0.69779301    -0.32680
C1215       C  0.77530884  0.25592492  0.68464245     0.36580
C1216       C  0.79813034  0.24813698  0.68134044    -0.05600
C1217       C  0.80493846  0.22718749  0.69171890    -0.32570
C1218       C  0.78933443  0.21407345  0.70476343     0.36480
H1219       H  0.74248091  0.24911433  0.70005634     0.16850
O1220       O  0.76798064  0.27668877  0.67594351    -0.60070
H1221       H  0.82228337  0.22074037  0.68946946     0.16870
O1222       O  0.79636242  0.19366403  0.71449540    -0.60170
H1223       H  0.80155445  0.19778258  0.73024546     0.43860
H1224       H  0.75731720  0.27274478  0.66316482     0.43820
C1225       C  0.70653730  0.16139755  0.70481466    -0.05250
C1226       C  0.70450853  0.16397021  0.68083026    -0.32680
C1227       C  0.69257174  0.14778507  0.66759726     0.36580
C1228       C  0.68210952  0.12859928  0.67824202    -0.05600
C1229       C  0.68456341  0.12561164  0.70213240    -0.32570
C1230       C  0.69646620  0.14195820  0.71546396     0.36480
H1231       H  0.71192954  0.17884341  0.67226493     0.16850
O1232       O  0.69142875  0.15084604  0.64419303    -0.60070
H1233       H  0.67677967  0.11086192  0.71058295     0.16870
O1234       O  0.69874336  0.13846113  0.73873746    -0.60170
H1235       H  0.68331181  0.14162769  0.74531027     0.43860
H1236       H  0.70443917  0.14175676  0.63789573     0.43820
C1237       C  0.24422802  0.80006982  0.24910902    -0.05250
C1238       C  0.24207580  0.80282967  0.22517268    -0.32680
C1239       C  0.23015111  0.78645888  0.21188676     0.36580
C1240       C  0.21981809  0.76718674  0.22263517    -0.05600
C1241       C  0.22134514  0.76502096  0.24669818    -0.32570
C1242       C  0.23323418  0.78127119  0.25987565     0.36480
H1243       H  0.25019822  0.81735003  0.21664514     0.16850
O1244       O  0.22820118  0.78971929  0.18854493    -0.60070
H1245       H  0.21373027  0.75032083  0.25538335     0.16870
O1246       O  0.23394089  0.77857706  0.28333952    -0.60170
H1247       H  0.22105958  0.78808722  0.28927634     0.43860
H1248       H  0.24388964  0.78724374  0.18228384     0.43820
C1249       C  0.22383210  0.70683481  0.16139591    -0.05250
C1250       C  0.24662385  0.70046438  0.16616668    -0.32680
C1251       C  0.25944772  0.68767862  0.15032825     0.36580
C1252       C  0.24961632  0.68125609  0.12901779    -0.05600
C1253       C  0.22698402  0.68825102  0.12394959    -0.32570
C1254       C  0.21400818  0.70070928  0.14007442     0.36480
H1255       H  0.25442533  0.70503860  0.18250861     0.16850
O1256       O  0.28188791  0.68236831  0.15552728    -0.60070
H1257       H  0.21911870  0.68360663  0.10767240     0.16870
O1258       O  0.19198313  0.70735817  0.13464442    -0.60170
H1259       H  0.18244634  0.69326838  0.13650585     0.43860
H1260       H  0.28106299  0.67042986  0.16777640     0.43820
C1261       C  0.12767865  0.68079177  0.24539575    -0.05250
C1262       C  0.14913757  0.67075555  0.24048316    -0.32680
C1263       C  0.16566209  0.68256821  0.22759019     0.36580
C1264       C  0.16103383  0.70494555  0.21934411    -0.05600
C1265       C  0.13962927  0.71509942  0.22408710    -0.32570
C1266       C  0.12288072  0.70311105  0.23680503     0.36480
H1267       H  0.15329758  0.65363554  0.24674265     0.16850
O1268       O  0.18687453  0.67266237  0.22435626    -0.60070
H1269       H  0.13600150  0.73246093  0.21812020     0.16870
O1270       O  0.10250647  0.71391453  0.24184616    -0.60170
H1271       H  0.09326788  0.71306899  0.22748558     0.43860
H1272       H  0.18465317  0.66125688  0.21182537     0.43820
C1273       C  0.76811523  0.70525172  0.70747012    -0.05250
C1274       C  0.78672569  0.71727683  0.69763880    -0.32680
C1275       C  0.80318460  0.70569241  0.68428821     0.36580
C1276       C  0.80112016  0.68174826  0.68056004    -0.05600
C1277       C  0.78279909  0.66974093  0.69066410    -0.32570
C1278       C  0.76647845  0.68117900  0.70406197     0.36480
H1279       H  0.78825042  0.73577451  0.69995058     0.16850
O1280       O  0.82061896  0.71808057  0.67423469    -0.60070
H1281       H  0.78092405  0.65132329  0.68797713     0.16870
O1282       O  0.74809305  0.66887072  0.71236096    -0.60170
H1283       H  0.75451809  0.65884650  0.72466518     0.43860
H1284       H  0.81464371  0.72256683  0.65885065     0.43820
C1285       C  0.70629619  0.76496310  0.70465765    -0.05250
C1286       C  0.69938816  0.78535154  0.71571793    -0.32680
C1287       C  0.68662475  0.80219354  0.70388161     0.36580
C1288       C  0.68016907  0.79851792  0.68075049    -0.05600
C1289       C  0.68708459  0.77808756  0.66977729    -0.32570
C1290       C  0.70013134  0.76148122  0.68144491     0.36480
H1291       H  0.70379039  0.78814819  0.73364256     0.16850
O1292       O  0.67939259  0.82146959  0.71548226    -0.60070
H1293       H  0.68231100  0.77487876  0.65202338     0.16870
O1294       O  0.70558360  0.74126406  0.67043316    -0.60170
H1295       H  0.71811392  0.74532302  0.65956618     0.43860
H1296       H  0.69311949  0.83162472  0.71642215     0.43820
C1297       C  0.70666220  0.70581642  0.76698050    -0.05250
C1298       C  0.69795327  0.71762074  0.78621173    -0.32680
C1299       C  0.68468194  0.70600387  0.80277243     0.36580
C1300       C  0.67982200  0.68230570  0.80007698    -0.05600
C1301       C  0.68857968  0.67061043  0.78090475    -0.32570
C1302       C  0.70193808  0.68206655  0.76453243     0.36480
H1303       H  0.70124976  0.73592106  0.78824212     0.16850
O1304       O  0.67595468  0.71812892  0.82104247    -0.60070
H1305       H  0.68501528  0.65240894  0.77848378     0.16870
O1306       O  0.70909783  0.67018777  0.74542558    -0.60170
H1307       H  0.72075122  0.65903458  0.75113838     0.43860
H1308       H  0.66050712  0.72338183  0.81594555     0.43820
loop_ 
_geom_bond_atom_site_label_1 
_geom_bond_atom_site_label_2 
_geom_bond_distance 
_geom_bond_site_symmetry_2 
_ccdc_geom_bond_type 
C1            C2   1.404       .  A
C1            C6   1.403       .  A
C1         C1297   1.483       .  S
C2            C3   1.404       .  A
C2            H7   1.084       .  S
C3            C4   1.405       .  A
C3         C1285   1.482       .  S
C4            C5   1.404       .  A
C4            H8   1.083       .  S
C5            C6   1.404       .  A
C5         C1273   1.487       .  S
C6            H9   1.083       .  S
C10          C11   1.403       .  A
C10          C15   1.402       .  A
C10        C1264   1.480       .  S
C11          C12   1.402       .  A
C11          H16   1.084       .  S
C12          C13   1.405       .  A
C12        C1249   1.481       .  S
C13          C14   1.406       .  A
C13          H17   1.083       .  S
C14          C15   1.407       .  A
C14        C1240   1.488       .  S
C15          H18   1.084       .  S
C19          C20   1.408       .  A
C19          C24   1.405       .  A
C19        C1201   1.489       .  S
C20          C21   1.408       .  A
C20          H25   1.082       .  S
C21          C22   1.406       .  A
C21        C1225   1.487       .  S
C22          C23   1.399       .  A
C22          H26   1.084       .  S
C23          C24   1.399       .  A
C23        C1213   1.474       .  S
C24          H27   1.084       .  S
C28          C29   1.407       .  A
C28          C33   1.407       .  A
C28        C1180   1.484       .  S
C29          C30   1.402       .  A
C29          H34   1.084       .  S
C30          C31   1.401       .  A
C30        C1189   1.480       .  S
C31          C32   1.401       .  A
C31          H35   1.084       .  S
C32          C33   1.403       .  A
C32        C1165   1.480       .  S
C33          H36   1.083       .  S
C37          C38   1.401       .  A
C37          C42   1.402       .  A
C37        C1129   1.483       .  S
C38          C39   1.403       .  A
C38          H43   1.084       .  S
C39          C40   1.405       .  A
C39        C1153   1.487       .  S
C40          C41   1.408       .  A
C40          H44   1.083       .  S
C41          C42   1.406       .  A
C41        C1141   1.488       .  S
C42          H45   1.082       .  S
C46          C47   1.402       .  A
C46          C51   1.401       .  A
C46        C1120   1.475       .  S
C47          C48   1.404       .  A
C47          H52   1.083       .  S
C48          C49   1.406       .  A
C48        C1105   1.484       .  S
C49          C50   1.402       .  A
C49          H53   1.084       .  S
C50          C51   1.402       .  A
C50        C1093   1.478       .  S
C51          H54   1.084       .  S
O55         Cu63   1.988       .  S
O55          C65   1.275       .  A
O56         Cu63   1.981       .  S
O56          C66   1.275       .  A
O57         Cu63   1.987       .  S
O57          C67   1.274       .  A
O58         Cu63   1.993       .  S
O58          C68   1.277       .  A
O59         Cu64   2.025       .  S
O59          C68   1.279       .  A
O60         Cu64   2.030       .  S
O60          C67   1.279       .  A
O61         Cu64   2.033       .  S
O61          C66   1.280       .  A
O62         Cu64   2.023       .  S
O62          C65   1.278       .  A
Cu63        Cu64   2.376       .  S
C65        C1069   1.465       .  S
C66        C1057   1.478       .  S
C67        C1048   1.467       .  S
C68        C1081   1.478       .  S
N69          N70   1.320       .  A
N69          C73   1.348       .  A
N69         Cu77   2.071       .  S
N70          C71   1.342       .  A
N70         Cu76   2.063       .  S
C71          C72   1.381       .  A
C71          H74   1.082       .  S
C72          C73   1.384       .  A
C72        C1045   1.471       .  S
C73          H75   1.082       .  S
Cu76         N79   2.063       .  S
Cu77         N87   2.073       .  S
Cu78         N80   2.088       .  S
Cu78         N86   2.090       .  S
N79          N80   1.322       .  A
N79          C83   1.339   1_554  A
N80          C81   1.352   1_554  A
C81          C82   1.388       .  A
C81          H84   1.082       .  S
C82          C83   1.380       .  A
C82         C192   1.474       .  S
C83          H85   1.082       .  S
N86          N87   1.325       .  A
N86          C90   1.349       .  A
N87          C88   1.342       .  A
C88          C89   1.382       .  A
C88          H91   1.081       .  S
C89          C90   1.386       .  A
C89        C1036   1.480       .  S
C90          H92   1.082       .  S
N93          N94   1.319       .  A
N93          C97   1.347       .  A
N93        Cu101   2.066       .  S
N94          C95   1.342       .  A
N94        Cu100   2.058       .  S
C95          C96   1.380       .  A
C95          H98   1.082       .  S
C96          C97   1.383       .  A
C96        C1072   1.467       .  S
C97          H99   1.082       .  S
Cu100       N103   2.058       .  S
Cu101       N111   2.068       .  S
Cu102       N104   2.091       .  S
Cu102       N110   2.092       .  S
N103        N104   1.322       .  A
N103        C107   1.338   1_554  A
N104        C105   1.352   1_554  A
C105        C106   1.389       .  A
C105        H108   1.082       .  S
C106        C107   1.378       .  A
C106        C216   1.473       .  S
C107        H109   1.082       .  S
N110        N111   1.324       .  A
N110        C114   1.349       .  A
N111        C112   1.340       .  A
C112        C113   1.382       .  A
C112        H115   1.081       .  S
C113        C114   1.389       .  A
C113       C1252   1.484       .  S
C114        H116   1.082       .  S
N117        N118   1.318       .  A
N117        C121   1.350       .  A
N117       Cu125   2.073       .  S
N118        C119   1.338       .  A
N118       Cu124   2.053       .  S
C119        C120   1.383       .  A
C119        H122   1.082       .  S
C120        C121   1.390       .  A
C120       C1060   1.481       .  S
C121        H123   1.081       .  S
Cu124       N127   2.053       .  S
Cu125       N135   2.077       .  S
Cu126       N128   2.085       .  S
Cu126       N134   2.088       .  S
N127        N128   1.320       .  A
N127        C131   1.337   1_554  A
N128        C129   1.352   1_554  A
C129        C130   1.389       .  A
C129        H132   1.082       .  S
C130        C131   1.379       .  A
C130        C240   1.473       .  S
C131        H133   1.082       .  S
N134        N135   1.326       .  A
N134        C138   1.347       .  A
N135        C136   1.342       .  A
C136        C137   1.382       .  A
C136        H139   1.082       .  S
C137        C138   1.385       .  A
C137       C1108   1.479       .  S
C138        H140   1.082       .  S
N141        N142   1.318       .  A
N141        C145   1.351       .  A
N141       Cu149   2.080       .  S
N142        C143   1.337       .  A
N142       Cu148   2.048       .  S
C143        C144   1.382       .  A
C143        H146   1.081       .  S
C144        C145   1.391       .  A
C144       C1084   1.481       .  S
C145        H147   1.082       .  S
Cu148       N151   2.049       .  S
Cu149       N159   2.084       .  S
Cu150       N152   2.082       .  S
Cu150       N158   2.086       .  S
N151        N152   1.320       .  A
N151        C155   1.337   1_554  A
N152        C153   1.351   1_554  A
C153        C154   1.389       .  A
C153        H156   1.082       .  S
C154        C155   1.378       .  A
C154        C264   1.471       .  S
C155        H157   1.082       .  S
N158        N159   1.326       .  A
N158        C162   1.347       .  A
N159        C160   1.342       .  A
C160        C161   1.384       .  A
C160        H163   1.081       .  S
C161        C162   1.385       .  A
C161       C1021   1.482       .  S
C162        H164   1.082       .  S
O165       Cu173   2.034       .  S
O165        C175   1.280       .  A
O166       Cu173   2.027       .  S
O166        C176   1.279       .  A
O167       Cu173   2.034       .  S
O167        C177   1.280       .  A
O168       Cu173   2.035       .  S
O168        C178   1.280       .  A
O169       Cu174   1.979       .  S
O169        C178   1.275       .  A
O170       Cu174   1.979       .  S
O170        C177   1.275       .  A
O171       Cu174   1.992       .  S
O171        C176   1.276       .  A
O172       Cu174   1.984       .  S
O172        C175   1.275       .  A
Cu173      Cu174   2.373       .  S
C175        C997   1.474       .  S
C176        C988   1.474       .  S
C177        C973   1.475       .  S
C178       C1012   1.476       .  S
N179        N180   1.318       .  A
N179        C183   1.350       .  A
N179       Cu187   2.071       .  S
N180        C181   1.338       .  A
N180       Cu186   2.055       .  S
C181        C182   1.383       .  A
C181        H184   1.082       .  S
C182        C183   1.388       .  A
C182        C976   1.479       .  S
C183        H185   1.082       .  S
Cu186       N189   2.056       .  S
Cu187       N197   2.075       .  S
Cu188       N190   2.088       .  S
Cu188       N196   2.090       .  S
N189        N190   1.321       .  A
N189        C193   1.338       .  A
N190        C191   1.352       .  A
C191        C192   1.389       .  A
C191        H194   1.082       .  S
C192        C193   1.379       .  A
C193        H195   1.082       .  S
N196        N197   1.325       .  A
N196        C200   1.348       .  A
N197        C198   1.341       .  A
C198        C199   1.382       .  A
C198        H201   1.082       .  S
C199        C200   1.387       .  A
C199       C1168   1.483       .  S
C200        H202   1.081       .  S
N203        N204   1.319       .  A
N203        C207   1.351       .  A
N203       Cu211   2.078       .  S
N204        C205   1.339       .  A
N204       Cu210   2.058       .  S
C205        C206   1.382       .  A
C205        H208   1.082       .  S
C206        C207   1.388       .  A
C206       C1000   1.479       .  S
C207        H209   1.082       .  S
Cu210       N213   2.058       .  S
Cu211       N221   2.081       .  S
Cu212       N214   2.080       .  S
Cu212       N220   2.083       .  S
N213        N214   1.321       .  A
N213        C217   1.338       .  A
N214        C215   1.351       .  A
C215        C216   1.388       .  A
C215        H218   1.082       .  S
C216        C217   1.380       .  A
C217        H219   1.082       .  S
N220        N221   1.326       .  A
N220        C224   1.347       .  A
N221        C222   1.342       .  A
C222        C223   1.382       .  A
C222        H225   1.082       .  S
C223        C224   1.383       .  A
C223       C1132   1.478       .  S
C224        H226   1.082       .  S
N227        N228   1.319       .  A
N227        C231   1.350       .  A
N227       Cu235   2.077       .  S
N228        C229   1.339       .  A
N228       Cu234   2.055       .  S
C229        C230   1.381       .  A
C229        H232   1.082       .  S
C230        C231   1.388       .  A
C230        C985   1.478       .  S
C231        H233   1.082       .  S
Cu234       N237   2.056       .  S
Cu235       N245   2.080       .  S
Cu236       N238   2.085       .  S
Cu236       N244   2.087       .  S
N237        N238   1.321       .  A
N237        C241   1.338       .  A
N238        C239   1.352       .  A
C239        C240   1.389       .  A
C239        H242   1.082       .  S
C240        C241   1.380       .  A
C241        H243   1.082       .  S
N244        N245   1.326       .  A
N244        C248   1.348       .  A
N245        C246   1.342       .  A
C246        C247   1.381       .  A
C246        H249   1.082       .  S
C247        C248   1.383       .  A
C247       C1204   1.476       .  S
C248        H250   1.082       .  S
N251        N252   1.319       .  A
N251        C255   1.350       .  A
N251       Cu259   2.074       .  S
N252        C253   1.339       .  A
N252       Cu258   2.055       .  S
C253        C254   1.382       .  A
C253        H256   1.081       .  S
C254        C255   1.388       .  A
C254       C1009   1.479       .  S
C255        H257   1.082       .  S
Cu258       N261   2.056       .  S
Cu259       N269   2.078       .  S
Cu260       N262   2.079       .  S
Cu260       N268   2.082       .  S
N261        N262   1.321       .  A
N261        C265   1.337       .  A
N262        C263   1.351       .  A
C263        C264   1.387       .  A
C263        H266   1.082       .  S
C264        C265   1.379       .  A
C265        H267   1.082       .  S
N268        N269   1.326       .  A
N268        C272   1.347       .  A
N269        C270   1.341       .  A
C270        C271   1.382       .  A
C270        H273   1.082       .  S
C271        C272   1.384       .  A
C271       C1300   1.477       .  S
C272        H274   1.082       .  S
O275       Cu283   1.980       .  S
O275        C285   1.275       .  A
O276       Cu283   1.971       .  S
O276        C286   1.274       .  A
O277       Cu283   1.991       .  S
O277        C287   1.276       .  A
O278       Cu283   1.988       .  S
O278        C288   1.275       .  A
O279       Cu284   2.026       .  S
O279        C288   1.279       .  A
O280       Cu284   2.024       .  S
O280        C287   1.278       .  A
O281       Cu284   2.046       .  S
O281        C286   1.282       .  A
O282       Cu284   2.035       .  S
O282        C285   1.280       .  A
Cu283      Cu284   2.374       .  S
C285        C949   1.475       .  S
C286        C940   1.482       .  S
C287        C925   1.474       .  S
C288        C964   1.467       .  S
N289        N290   1.318       .  A
N289        C293   1.350       .  A
N289       Cu297   2.077       .  S
N290        C291   1.338       .  A
N290       Cu296   2.052       .  S
C291        C292   1.382       .  A
C291        H294   1.082       .  S
C292        C293   1.390       .  A
C292        C928   1.480       .  S
C293        H295   1.082       .  S
Cu296       N299   2.052       .  S
Cu297       N307   2.080       .  S
Cu298       N300   2.081       .  S
Cu298       N306   2.084       .  S
N299        N300   1.320       .  A
N299        C303   1.337   1_545  A
N300        C301   1.351   1_545  A
C301        C302   1.388       .  A
C301        H304   1.082       .  S
C302        C303   1.379       .  A
C302        C412   1.471       .  S
C303        H305   1.082       .  S
N306        N307   1.326       .  A
N306        C310   1.347       .  A
N307        C308   1.342       .  A
C308        C309   1.382       .  A
C308        H311   1.082       .  S
C309        C310   1.385       .  A
C309        C916   1.479       .  S
C310        H312   1.081       .  S
N313        N314   1.319       .  A
N313        C317   1.350       .  A
N313       Cu321   2.073       .  S
N314        C315   1.339       .  A
N314       Cu320   2.057       .  S
C315        C316   1.383       .  A
C315        H318   1.082       .  S
C316        C317   1.388       .  A
C316        C952   1.479       .  S
C317        H319   1.082       .  S
Cu320       N323   2.057       .  S
Cu321       N331   2.076       .  S
Cu322       N324   2.086       .  S
Cu322       N330   2.089       .  S
N323        N324   1.321       .  A
N323        C327   1.338   1_545  A
N324        C325   1.352   1_545  A
C325        C326   1.389       .  A
C325        H328   1.082       .  S
C326        C327   1.380       .  A
C326        C436   1.474       .  S
C327        H329   1.082       .  S
N330        N331   1.325       .  A
N330        C334   1.347       .  A
N331        C332   1.341       .  A
C332        C333   1.385       .  A
C332        H335   1.081       .  S
C333        C334   1.389       .  A
C333       C1117   1.488       .  S
C334        H336   1.080       .  S
N337        N338   1.318       .  A
N337        C341   1.351       .  A
N337       Cu345   2.077       .  S
N338        C339   1.338       .  A
N338       Cu344   2.055       .  S
C339        C340   1.384       .  A
C339        H342   1.082       .  S
C340        C341   1.391       .  A
C340        C937   1.485       .  S
C341        H343   1.081       .  S
Cu344       N347   2.055       .  S
Cu345       N355   2.080       .  S
Cu346       N348   2.083       .  S
Cu346       N354   2.086       .  S
N347        N348   1.320       .  A
N347        C351   1.337   1_545  A
N348        C349   1.352   1_545  A
C349        C350   1.389       .  A
C349        H352   1.082       .  S
C350        C351   1.379       .  A
C350        C460   1.473       .  S
C351        H353   1.082       .  S
N354        N355   1.326       .  A
N354        C358   1.347       .  A
N355        C356   1.342       .  A
C356        C357   1.383       .  A
C356        H359   1.081       .  S
C357        C358   1.385       .  A
C357       C1192   1.481       .  S
C358        H360   1.082       .  S
N361        N362   1.320       .  A
N361        C365   1.349       .  A
N361       Cu369   2.074       .  S
N362        C363   1.341       .  A
N362       Cu368   2.059       .  S
C363        C364   1.381       .  A
C363        H366   1.082       .  S
C364        C365   1.386       .  A
C364        C961   1.474       .  S
C365        H367   1.082       .  S
Cu368       N371   2.060       .  S
Cu369       N379   2.076       .  S
Cu370       N372   2.084       .  S
Cu370       N378   2.086       .  S
N371        N372   1.321       .  A
N371        C375   1.338   1_545  A
N372        C373   1.352   1_545  A
C373        C374   1.388       .  A
C373        H376   1.082       .  S
C374        C375   1.380       .  A
C374        C484   1.473       .  S
C375        H377   1.081       .  S
N378        N379   1.325       .  A
N378        C382   1.348       .  A
N379        C380   1.342       .  A
C380        C381   1.382       .  A
C380        H383   1.082       .  S
C381        C382   1.385       .  A
C381       C1228   1.480       .  S
C382        H384   1.082       .  S
O385       Cu393   1.985       .  S
O385        C395   1.276       .  A
O386       Cu393   1.985       .  S
O386        C396   1.275       .  A
O387       Cu393   1.991       .  S
O387        C397   1.276       .  A
O388       Cu393   1.984       .  S
O388        C398   1.274       .  A
O389       Cu394   2.033       .  S
O389        C398   1.280       .  A
O390       Cu394   2.025       .  S
O390        C397   1.279       .  A
O391       Cu394   2.033       .  S
O391        C396   1.280       .  A
O392       Cu394   2.029       .  S
O392        C395   1.280       .  A
Cu393      Cu394   2.375       .  S
C395        C901   1.477       .  S
C396        C865   1.472       .  S
C397        C877   1.475       .  S
C398        C889   1.469       .  S
N399        N400   1.319       .  A
N399        C403   1.350       .  A
N399       Cu407   2.075       .  S
N400        C401   1.339       .  A
N400       Cu406   2.056       .  S
C401        C402   1.381       .  A
C401        H404   1.082       .  S
C402        C403   1.387       .  A
C402        C868   1.476       .  S
C403        H405   1.082       .  S
Cu406       N409   2.056       .  S
Cu407       N417   2.078       .  S
Cu408       N410   2.081       .  S
Cu408       N416   2.083       .  S
N409        N410   1.321       .  A
N409        C413   1.338       .  A
N410        C411   1.351       .  A
C411        C412   1.387       .  A
C411        H414   1.082       .  S
C412        C413   1.379       .  A
C413        H415   1.082       .  S
N416        N417   1.325       .  A
N416        C420   1.347       .  A
N417        C418   1.342       .  A
C418        C419   1.382       .  A
C418        H421   1.082       .  S
C419        C420   1.384       .  A
C419       C1237   1.479       .  S
C420        H422   1.082       .  S
N423        N424   1.319       .  A
N423        C427   1.349       .  A
N423       Cu431   2.072       .  S
N424        C425   1.341       .  A
N424       Cu430   2.059       .  S
C425        C426   1.382       .  A
C425        H428   1.082       .  S
C426        C427   1.386       .  A
C426        C892   1.474       .  S
C427        H429   1.082       .  S
Cu430       N433   2.059       .  S
Cu431       N441   2.074       .  S
Cu432       N434   2.089       .  S
Cu432       N440   2.091       .  S
N433        N434   1.322       .  A
N433        C437   1.338       .  A
N434        C435   1.352       .  A
C435        C436   1.389       .  A
C435        H438   1.082       .  S
C436        C437   1.380       .  A
C437        H439   1.082       .  S
N440        N441   1.324       .  A
N440        C444   1.348       .  A
N441        C442   1.341       .  A
C442        C443   1.385       .  A
C442        H445   1.080       .  S
C443        C444   1.390       .  A
C443        C853   1.489       .  S
C444        H446   1.082       .  S
N447        N448   1.319       .  A
N447        C451   1.350       .  A
N447       Cu455   2.076       .  S
N448        C449   1.339       .  A
N448       Cu454   2.054       .  S
C449        C450   1.382       .  A
C449        H452   1.082       .  S
C450        C451   1.389       .  A
C450        C880   1.480       .  S
C451        H453   1.082       .  S
Cu454       N457   2.054       .  S
Cu455       N465   2.079       .  S
Cu456       N458   2.085       .  S
Cu456       N464   2.088       .  S
N457        N458   1.321       .  A
N457        C461   1.337       .  A
N458        C459   1.352       .  A
C459        C460   1.389       .  A
C459        H462   1.082       .  S
C460        C461   1.379       .  A
C461        H463   1.082       .  S
N464        N465   1.326       .  A
N464        C468   1.347       .  A
N465        C466   1.343       .  A
C466        C467   1.380       .  A
C466        H469   1.082       .  S
C467        C468   1.384       .  A
C467       C1144   1.476       .  S
C468        H470   1.082       .  S
N471        N472   1.318       .  A
N471        C475   1.350       .  A
N471       Cu479   2.077       .  S
N472        C473   1.338       .  A
N472       Cu478   2.050       .  S
C473        C474   1.382       .  A
C473        H476   1.081       .  S
C474        C475   1.390       .  A
C474        C904   1.480       .  S
C475        H477   1.082       .  S
Cu478       N481   2.050       .  S
Cu479       N489   2.080       .  S
Cu480       N482   2.088       .  S
Cu480       N488   2.091       .  S
N481        N482   1.320       .  A
N481        C485   1.337       .  A
N482        C483   1.353       .  A
C483        C484   1.390       .  A
C483        H486   1.082       .  S
C484        C485   1.378       .  A
C485        H487   1.081       .  S
N488        N489   1.326       .  A
N488        C492   1.348       .  A
N489        C490   1.342       .  A
C490        C491   1.382       .  A
C490        H493   1.082       .  S
C491        C492   1.386       .  A
C491       C1288   1.482       .  S
C492        H494   1.081       .  S
C495        C496   1.398       .  A
C495        C500   1.402       .  A
C495        C856   1.474       .  S
C496        C497   1.402       .  A
C496        H501   1.084       .  S
C497        C498   1.404       .  A
C497       C1024   1.482       .  S
C498        C499   1.408       .  A
C498        H502   1.082       .  S
C499        C500   1.408       .  A
C499        C841   1.490       .  S
C500        H503   1.084       .  S
O504       Cu512   2.043       .  S
O504        C514   1.282       .  A
O505       Cu512   2.043       .  S
O505        C515   1.281       .  A
O506       Cu512   2.024       .  S
O506        C516   1.279       .  A
O507       Cu512   2.021       .  S
O507        C517   1.278       .  A
O508       Cu513   1.995       .  S
O508        C517   1.276       .  A
O509       Cu513   1.990       .  S
O509        C516   1.277       .  A
O510       Cu513   1.972       .  S
O510        C515   1.274       .  A
O511       Cu513   1.974       .  S
O511        C514   1.274       .  A
Cu512      Cu513   2.373       .  S
C514        C805   1.485       .  S
C515        C817   1.475       .  S
C516        C829   1.474       .  S
C517        C793   1.467       .  S
N518        N519   1.320       .  A
N518        C522   1.348       .  A
N518       Cu526   2.074       .  S
N519        C520   1.342       .  A
N519       Cu525   2.059       .  S
C520        C521   1.380       .  A
C520        H523   1.082       .  S
C521        C522   1.385       .  A
C521        C796   1.471       .  S
C522        H524   1.082       .  S
Cu525       N528   2.059       .  S
Cu526       N536   2.076       .  S
Cu527       N529   2.089       .  S
Cu527       N535   2.090       .  S
N528        N529   1.322       .  A
N528        C532   1.338   1_455  A
N529        C530   1.352   1_455  A
C530        C531   1.388       .  A
C530        H533   1.082       .  S
C531        C532   1.379       .  A
C531        C641   1.473       .  S
C532        H534   1.082       .  S
N535        N536   1.325       .  A
N535        C539   1.349       .  A
N536        C537   1.342       .  A
C537        C538   1.382       .  A
C537        H540   1.082       .  S
C538        C539   1.387       .  A
C538        C781   1.481       .  S
C539        H541   1.082       .  S
N542        N543   1.319       .  A
N542        C546   1.350       .  A
N542       Cu550   2.074       .  S
N543        C544   1.339       .  A
N543       Cu549   2.058       .  S
C544        C545   1.383       .  A
C544        H547   1.081       .  S
C545        C546   1.388       .  A
C545        C820   1.479       .  S
C546        H548   1.082       .  S
Cu549       N552   2.058       .  S
Cu550       N560   2.077       .  S
Cu551       N553   2.088       .  S
Cu551       N559   2.091       .  S
N552        N553   1.321       .  A
N552        C556   1.339   1_455  A
N553        C554   1.352   1_455  A
C554        C555   1.389       .  A
C554        H557   1.082       .  S
C555        C556   1.380       .  A
C555        C665   1.475       .  S
C556        H558   1.082       .  S
N559        N560   1.325       .  A
N559        C563   1.348       .  A
N560        C561   1.341       .  A
C561        C562   1.384       .  A
C561        H564   1.082       .  S
C562        C563   1.388       .  A
C562       C1261   1.486       .  S
C563        H565   1.081       .  S
N566        N567   1.318       .  A
N566        C570   1.351       .  A
N566       Cu574   2.077       .  S
N567        C568   1.337       .  A
N567       Cu573   2.055       .  S
C568        C569   1.385       .  A
C568        H571   1.082       .  S
C569        C570   1.392       .  A
C569        C808   1.487       .  S
C570        H572   1.081       .  S
Cu573       N576   2.056       .  S
Cu574       N584   2.080       .  S
Cu575       N577   2.085       .  S
Cu575       N583   2.088       .  S
N576        N577   1.320       .  A
N576        C580   1.337   1_455  A
N577        C578   1.352   1_455  A
C578        C579   1.389       .  A
C578        H581   1.082       .  S
C579        C580   1.380       .  A
C579        C689   1.474       .  S
C580        H582   1.081       .  S
N583        N584   1.326       .  A
N583        C587   1.347       .  A
N584        C585   1.342       .  A
C585        C586   1.382       .  A
C585        H588   1.082       .  S
C586        C587   1.384       .  A
C586       C1177   1.479       .  S
C587        H589   1.082       .  S
N590        N591   1.318       .  A
N590        C594   1.350       .  A
N590       Cu598   2.077       .  S
N591        C592   1.338       .  A
N591       Cu597   2.051       .  S
C592        C593   1.381       .  A
C592        H595   1.082       .  S
C593        C594   1.389       .  A
C593        C832   1.478       .  S
C594        H596   1.082       .  S
Cu597       N600   2.051       .  S
Cu598       N608   2.080       .  S
Cu599       N601   2.084       .  S
Cu599       N607   2.087       .  S
N600        N601   1.320       .  A
N600        C604   1.337   1_455  A
N601        C602   1.352   1_455  A
C602        C603   1.389       .  A
C602        H605   1.082       .  S
C603        C604   1.379       .  A
C603        C713   1.471       .  S
C604        H606   1.082       .  S
N607        N608   1.326       .  A
N607        C611   1.348       .  A
N608        C609   1.342       .  A
C609        C610   1.381       .  A
C609        H612   1.082       .  S
C610        C611   1.383       .  A
C610       C1156   1.477       .  S
C611        H613   1.082       .  S
O614       Cu622   1.979       .  S
O614        C624   1.275       .  A
O615       Cu622   1.981       .  S
O615        C625   1.275       .  A
O616       Cu622   1.988       .  S
O616        C626   1.276       .  A
O617       Cu622   1.986       .  S
O617        C627   1.275       .  A
O618       Cu623   2.034       .  S
O618        C627   1.280       .  A
O619       Cu623   2.030       .  S
O619        C626   1.280       .  A
O620       Cu623   2.035       .  S
O620        C625   1.280       .  A
O621       Cu623   2.040       .  S
O621        C624   1.281       .  A
Cu622      Cu623   2.370       .  S
C624        C745   1.485       .  S
C625        C757   1.473       .  S
C626        C769   1.480       .  S
C627        C733   1.473       .  S
N628        N629   1.319       .  A
N628        C632   1.350       .  A
N628       Cu636   2.078       .  S
N629        C630   1.340       .  A
N629       Cu635   2.059       .  S
C630        C631   1.382       .  A
C630        H633   1.082       .  S
C631        C632   1.388       .  A
C631        C736   1.479       .  S
C632        H634   1.082       .  S
Cu635       N638   2.059       .  S
Cu636       N646   2.080       .  S
Cu637       N639   2.083       .  S
Cu637       N645   2.085       .  S
N638        N639   1.321       .  A
N638        C642   1.339       .  A
N639        C640   1.351       .  A
C640        C641   1.388       .  A
C640        H643   1.082       .  S
C641        C642   1.380       .  A
C642        H644   1.082       .  S
N645        N646   1.325       .  A
N645        C649   1.347       .  A
N646        C647   1.342       .  A
C647        C648   1.384       .  A
C647        H650   1.082       .  S
C648        C649   1.387       .  A
C648       C1096   1.484       .  S
C649        H651   1.081       .  S
N652        N653   1.320       .  A
N652        C656   1.350       .  A
N652       Cu660   2.075       .  S
N653        C654   1.340       .  A
N653       Cu659   2.061       .  S
C654        C655   1.382       .  A
C654        H657   1.082       .  S
C655        C656   1.386       .  A
C655        C760   1.477       .  S
C656        H658   1.082       .  S
Cu659       N662   2.062       .  S
Cu660       N670   2.078       .  S
Cu661       N663   2.087       .  S
Cu661       N669   2.088       .  S
N662        N663   1.321       .  A
N662        C666   1.339       .  A
N663        C664   1.352       .  A
C664        C665   1.388       .  A
C664        H667   1.082       .  S
C665        C666   1.381       .  A
C666        H668   1.082       .  S
N669        N670   1.326       .  A
N669        C673   1.348       .  A
N670        C671   1.343       .  A
C671        C672   1.381       .  A
C671        H674   1.082       .  S
C672        C673   1.384       .  A
C672        C844   1.477       .  S
C673        H675   1.082       .  S
N676        N677   1.317       .  A
N676        C680   1.351       .  A
N676       Cu684   2.078       .  S
N677        C678   1.338       .  A
N677       Cu683   2.053       .  S
C678        C679   1.385       .  A
C678        H681   1.080       .  S
C679        C680   1.392       .  A
C679        C748   1.487       .  S
C680        H682   1.082       .  S
Cu683       N686   2.053       .  S
Cu684       N694   2.081       .  S
Cu685       N687   2.087       .  S
Cu685       N693   2.090       .  S
N686        N687   1.320       .  A
N686        C690   1.337       .  A
N687        C688   1.353       .  A
C688        C689   1.390       .  A
C688        H691   1.082       .  S
C689        C690   1.379       .  A
C690        H692   1.081       .  S
N693        N694   1.325       .  A
N693        C697   1.347       .  A
N694        C695   1.341       .  A
C695        C696   1.386       .  A
C695        H698   1.080       .  S
C696        C697   1.388       .  A
C696       C1216   1.489       .  S
C697        H699   1.082       .  S
N700        N701   1.318       .  A
N700        C704   1.351       .  A
N700       Cu708   2.078       .  S
N701        C702   1.338       .  A
N701       Cu707   2.054       .  S
C702        C703   1.382       .  A
C702        H705   1.082       .  S
C703        C704   1.390       .  A
C703        C772   1.481       .  S
C704        H706   1.082       .  S
Cu707       N710   2.054       .  S
Cu708       N718   2.081       .  S
Cu709       N711   2.080       .  S
Cu709       N717   2.083       .  S
N710        N711   1.320       .  A
N710        C714   1.337       .  A
N711        C712   1.351       .  A
C712        C713   1.388       .  A
C712        H715   1.082       .  S
C713        C714   1.379       .  A
C714        H716   1.082       .  S
N717        N718   1.326       .  A
N717        C721   1.347       .  A
N718        C719   1.342       .  A
C719        C720   1.382       .  A
C719        H722   1.082       .  S
C720        C721   1.383       .  A
C720       C1276   1.477       .  S
C721        H723   1.082       .  S
C724        C725   1.402       .  A
C724        C729   1.402       .  A
C724        C913   1.482       .  S
C725        C726   1.405       .  A
C725        H730   1.084       .  S
C726        C727   1.407       .  A
C726       C1033   1.485       .  S
C727        C728   1.405       .  A
C727        H731   1.083       .  S
C728        C729   1.404       .  A
C728        C784   1.484       .  S
C729        H732   1.084       .  S
C733        C734   1.400       .  A
C733        C738   1.409       .  A
C734        C735   1.394       .  A
C734        H739   1.084       .  S
C735        C736   1.409       .  A
C735        O740   1.372       .  S
C736        C737   1.406       .  A
C737        C738   1.407       .  A
C737        H741   1.083       .  S
C738        O742   1.371       .  S
O740        H744   0.992       .  S
O742        H743   0.991       .  S
C745        C746   1.403       .  A
C745        C750   1.411       .  A
C746        C747   1.394       .  A
C746        H751   1.084       .  S
C747        C748   1.410       .  A
C747        O752   1.373       .  S
C748        C749   1.408       .  A
C749        C750   1.409       .  A
C749        H753   1.083       .  S
C750        O754   1.371       .  S
O752        H756   0.992       .  S
O754        H755   0.992       .  S
C757        C758   1.401       .  A
C757        C762   1.409       .  A
C758        C759   1.393       .  A
C758        H763   1.084       .  S
C759        C760   1.407       .  A
C759        O764   1.372       .  S
C760        C761   1.406       .  A
C761        C762   1.407       .  A
C761        H765   1.083       .  S
C762        O766   1.371       .  S
O764        H768   0.992       .  S
O766        H767   0.991       .  S
C769        C770   1.407       .  A
C769        C774   1.409       .  A
C770        C771   1.408       .  A
C770        H775   1.083       .  S
C771        C772   1.410       .  A
C771        O776   1.371       .  S
C772        C773   1.402       .  A
C773        C774   1.394       .  A
C773        H777   1.083       .  S
C774        O778   1.373       .  S
O776        H780   0.992       .  S
O778        H779   0.992       .  S
C781        C782   1.402       .  A
C781        C786   1.410       .  A
C782        C783   1.397       .  A
C782        H787   1.083       .  S
C783        C784   1.410       .  A
C783        O788   1.372       .  S
C784        C785   1.405       .  A
C785        C786   1.404       .  A
C785        H789   1.083       .  S
C786        O790   1.371       .  S
O788        H792   0.992       .  S
O790        H791   0.992       .  S
C793        C794   1.403       .  A
C793        C798   1.405       .  A
C794        C795   1.403       .  A
C794        H799   1.084       .  S
C795        C796   1.407       .  A
C795        O800   1.371       .  S
C796        C797   1.402       .  A
C797        C798   1.398       .  A
C797        H801   1.084       .  S
C798        O802   1.372       .  S
O800        H804   0.991       .  S
O802        H803   0.992       .  S
C805        C806   1.407       .  A
C805        C810   1.412       .  A
C806        C807   1.410       .  A
C806        H811   1.083       .  S
C807        C808   1.412       .  A
C807        O812   1.371       .  S
C808        C809   1.402       .  A
C809        C810   1.391       .  A
C809        H813   1.083       .  S
C810        O814   1.373       .  S
O812        H816   0.992       .  S
O814        H815   0.992       .  S
C817        C818   1.402       .  A
C817        C822   1.408       .  A
C818        C819   1.393       .  A
C818        H823   1.084       .  S
C819        C820   1.407       .  A
C819        O824   1.373       .  S
C820        C821   1.408       .  A
C821        C822   1.409       .  A
C821        H825   1.083       .  S
C822        O826   1.371       .  S
O824        H828   0.992       .  S
O826        H827   0.992       .  S
C829        C830   1.401       .  A
C829        C834   1.409       .  A
C830        C831   1.393       .  A
C830        H835   1.084       .  S
C831        C832   1.409       .  A
C831        O836   1.372       .  S
C832        C833   1.406       .  A
C833        C834   1.406       .  A
C833        H837   1.083       .  S
C834        O838   1.371       .  S
O836        H840   0.992       .  S
O838        H839   0.992       .  S
C841        C842   1.407       .  A
C841        C846   1.414       .  A
C842        C843   1.402       .  A
C842        H847   1.083       .  S
C843        C844   1.407       .  A
C843        O848   1.371       .  S
C844        C845   1.401       .  A
C845        C846   1.399       .  A
C845        H849   1.084       .  S
C846        O850   1.372       .  S
O848        H852   0.992       .  S
O850        H851   0.992       .  S
C853        C854   1.409       .  A
C853        C858   1.415       .  A
C854        C855   1.403       .  A
C854        H859   1.083       .  S
C855        C856   1.404       .  A
C855        O860   1.371       .  S
C856        C857   1.399       .  A
C857        C858   1.398       .  A
C857        H861   1.084       .  S
C858        O862   1.371       .  S
O860        H864   0.992       .  S
O862        H863   0.992       .  S
C865        C866   1.404       .  A
C865        C870   1.406       .  A
C866        C867   1.407       .  A
C866        H871   1.083       .  S
C867        C868   1.410       .  A
C867        O872   1.371       .  S
C868        C869   1.401       .  A
C869        C870   1.393       .  A
C869        H873   1.084       .  S
C870        O874   1.371       .  S
O872        H876   0.992       .  S
O874        H875   0.992       .  S
C877        C878   1.405       .  A
C877        C882   1.407       .  A
C878        C879   1.407       .  A
C878        H883   1.083       .  S
C879        C880   1.411       .  A
C879        O884   1.371       .  S
C880        C881   1.403       .  A
C881        C882   1.393       .  A
C881        H885   1.083       .  S
C882        O886   1.372       .  S
O884        H888   0.992       .  S
O886        H887   0.992       .  S
C889        C890   1.400       .  A
C889        C894   1.408       .  A
C890        C891   1.394       .  A
C890        H895   1.082       .  S
C891        C892   1.407       .  A
C891        O896   1.372       .  S
C892        C893   1.405       .  A
C893        C894   1.405       .  A
C893        H897   1.083       .  S
C894        O898   1.371       .  S
O896        H900   0.992       .  S
O898        H899   0.991       .  S
C901        C902   1.401       .  A
C901        C906   1.410       .  A
C902        C903   1.394       .  A
C902        H907   1.084       .  S
C903        C904   1.409       .  A
C903        O908   1.373       .  S
C904        C905   1.406       .  A
C905        C906   1.407       .  A
C905        H909   1.083       .  S
C906        O910   1.371       .  S
O908        H912   0.992       .  S
O910        H911   0.992       .  S
C913        C914   1.405       .  A
C913        C918   1.409       .  A
C914        C915   1.404       .  A
C914        H919   1.084       .  S
C915        C916   1.410       .  A
C915        O920   1.371       .  S
C916        C917   1.402       .  A
C917        C918   1.396       .  A
C917        H921   1.083       .  S
C918        O922   1.372       .  S
O920        H924   0.992       .  S
O922        H923   0.992       .  S
C925        C926   1.405       .  A
C925        C930   1.406       .  A
C926        C927   1.407       .  A
C926        H931   1.083       .  S
C927        C928   1.411       .  A
C927        O932   1.371       .  S
C928        C929   1.403       .  A
C929        C930   1.392       .  A
C929        H933   1.083       .  S
C930        O934   1.372       .  S
O932        H936   0.992       .  S
O934        H935   0.992       .  S
C937        C938   1.402       .  A
C937        C942   1.412       .  A
C938        C939   1.392       .  A
C938        H943   1.083       .  S
C939        C940   1.411       .  A
C939        O944   1.373       .  S
C940        C941   1.406       .  A
C941        C942   1.409       .  A
C941        H945   1.083       .  S
C942        O946   1.371       .  S
O944        H948   0.992       .  S
O946        H947   0.992       .  S
C949        C950   1.401       .  A
C949        C954   1.408       .  A
C950        C951   1.394       .  A
C950        H955   1.084       .  S
C951        C952   1.407       .  A
C951        O956   1.373       .  S
C952        C953   1.407       .  A
C953        C954   1.408       .  A
C953        H957   1.083       .  S
C954        O958   1.371       .  S
O956        H960   0.992       .  S
O958        H959   0.992       .  S
C961        C962   1.405       .  A
C961        C966   1.407       .  A
C962        C963   1.405       .  A
C962        H967   1.083       .  S
C963        C964   1.407       .  A
C963        O968   1.371       .  S
C964        C965   1.400       .  A
C965        C966   1.395       .  A
C965        H969   1.084       .  S
C966        O970   1.372       .  S
O968        H972   0.991       .  S
O970        H971   0.992       .  S
C973        C974   1.405       .  A
C973        C978   1.408       .  A
C974        C975   1.408       .  A
C974        H979   1.083       .  S
C975        C976   1.412       .  A
C975        O980   1.371       .  S
C976        C977   1.401       .  A
C977        C978   1.391       .  A
C977        H981   1.084       .  S
C978        O982   1.372       .  S
O980        H984   0.992       .  S
O982        H983   0.992       .  S
C985        C986   1.406       .  A
C985        C990   1.408       .  A
C986        C987   1.407       .  A
C986        H991   1.083       .  S
C987        C988   1.409       .  A
C987        O992   1.371       .  S
C988        C989   1.401       .  A
C989        C990   1.394       .  A
C989        H993   1.084       .  S
C990        O994   1.372       .  S
O992        H996   0.991       .  S
O994        H995   0.992       .  S
C997        C998   1.401       .  A
C997       C1002   1.409       .  A
C998        C999   1.393       .  A
C998       H1003   1.083       .  S
C999       C1000   1.408       .  A
C999       O1004   1.372       .  S
C1000      C1001   1.406       .  A
C1001      C1002   1.408       .  A
C1001      H1005   1.083       .  S
C1002      O1006   1.371       .  S
O1004      H1008   0.992       .  S
O1006      H1007   0.991       .  S
C1009      C1010   1.406       .  A
C1009      C1014   1.408       .  A
C1010      C1011   1.407       .  A
C1010      H1015   1.083       .  S
C1011      C1012   1.409       .  A
C1011      O1016   1.371       .  S
C1012      C1013   1.401       .  A
C1013      C1014   1.394       .  A
C1013      H1017   1.084       .  S
C1014      O1018   1.373       .  S
O1016      H1020   0.992       .  S
O1018      H1019   0.992       .  S
C1021      C1022   1.407       .  A
C1021      C1026   1.409       .  A
C1022      C1023   1.405       .  A
C1022      H1027   1.083       .  S
C1023      C1024   1.408       .  A
C1023      O1028   1.372       .  S
C1024      C1025   1.403       .  A
C1025      C1026   1.396       .  A
C1025      H1029   1.084       .  S
C1026      O1030   1.372       .  S
O1028      H1032   0.992       .  S
O1030      H1031   0.992       .  S
C1033      C1034   1.404       .  A
C1033      C1038   1.409       .  A
C1034      C1035   1.398       .  A
C1034      H1039   1.084       .  S
C1035      C1036   1.409       .  A
C1035      O1040   1.372       .  S
C1036      C1037   1.405       .  A
C1037      C1038   1.405       .  A
C1037      H1041   1.083       .  S
C1038      O1042   1.372       .  S
O1040      H1044   0.992       .  S
O1042      H1043   0.992       .  S
C1045      C1046   1.401       .  A
C1045      C1050   1.408       .  A
C1046      C1047   1.397       .  A
C1046      H1051   1.084       .  S
C1047      C1048   1.406       .  A
C1047      O1052   1.371       .  S
C1048      C1049   1.402       .  A
C1049      C1050   1.404       .  A
C1049      H1053   1.083       .  S
C1050      O1054   1.371       .  S
O1052      H1056   0.992       .  S
O1054      H1055   0.992       .  S
C1057      C1058   1.406       .  A
C1057      C1062   1.409       .  A
C1058      C1059   1.407       .  A
C1058      H1063   1.083       .  S
C1059      C1060   1.410       .  A
C1059      O1064   1.371       .  S
C1060      C1061   1.402       .  A
C1061      C1062   1.393       .  A
C1061      H1065   1.083       .  S
C1062      O1066   1.373       .  S
O1064      H1068   0.992       .  S
O1066      H1067   0.991       .  S
C1069      C1070   1.402       .  A
C1069      C1074   1.406       .  A
C1070      C1071   1.402       .  A
C1070      H1075   1.084       .  S
C1071      C1072   1.407       .  A
C1071      O1076   1.371       .  S
C1072      C1073   1.400       .  A
C1073      C1074   1.396       .  A
C1073      H1077   1.084       .  S
C1074      O1078   1.372       .  S
O1076      H1080   0.991       .  S
O1078      H1079   0.992       .  S
C1081      C1082   1.401       .  A
C1081      C1086   1.410       .  A
C1082      C1083   1.395       .  A
C1082      H1087   1.084       .  S
C1083      C1084   1.410       .  A
C1083      O1088   1.373       .  S
C1084      C1085   1.406       .  A
C1085      C1086   1.407       .  A
C1085      H1089   1.083       .  S
C1086      O1090   1.371       .  S
O1088      H1092   0.992       .  S
O1090      H1091   0.992       .  S
C1093      C1094   1.402       .  A
C1093      C1098   1.407       .  A
C1094      C1095   1.404       .  A
C1094      H1099   1.084       .  S
C1095      C1096   1.412       .  A
C1095      O1100   1.371       .  S
C1096      C1097   1.405       .  A
C1097      C1098   1.397       .  A
C1097      H1101   1.083       .  S
C1098      O1102   1.372       .  S
O1100      H1104   0.992       .  S
O1102      H1103   0.992       .  S
C1105      C1106   1.404       .  A
C1105      C1110   1.410       .  A
C1106      C1107   1.395       .  A
C1106      H1111   1.084       .  S
C1107      C1108   1.409       .  A
C1107      O1112   1.371       .  S
C1108      C1109   1.404       .  A
C1109      C1110   1.404       .  A
C1109      H1113   1.083       .  S
C1110      O1114   1.372       .  S
O1112      H1116   0.992       .  S
O1114      H1115   0.992       .  S
C1117      C1118   1.407       .  A
C1117      C1122   1.414       .  A
C1118      C1119   1.395       .  A
C1118      H1123   1.082       .  S
C1119      C1120   1.404       .  A
C1119      O1124   1.372       .  S
C1120      C1121   1.401       .  A
C1121      C1122   1.404       .  A
C1121      H1125   1.084       .  S
C1122      O1126   1.371       .  S
O1124      H1128   0.992       .  S
O1126      H1127   0.992       .  S
C1129      C1130   1.405       .  A
C1129      C1134   1.411       .  A
C1130      C1131   1.403       .  A
C1130      H1135   1.083       .  S
C1131      C1132   1.410       .  A
C1131      O1136   1.371       .  S
C1132      C1133   1.401       .  A
C1133      C1134   1.396       .  A
C1133      H1137   1.084       .  S
C1134      O1138   1.373       .  S
O1136      H1140   0.992       .  S
O1138      H1139   0.992       .  S
C1141      C1142   1.407       .  A
C1141      C1146   1.413       .  A
C1142      C1143   1.401       .  A
C1142      H1147   1.084       .  S
C1143      C1144   1.407       .  A
C1143      O1148   1.371       .  S
C1144      C1145   1.401       .  A
C1145      C1146   1.399       .  A
C1145      H1149   1.084       .  S
C1146      O1150   1.372       .  S
O1148      H1152   0.992       .  S
O1150      H1151   0.992       .  S
C1153      C1154   1.406       .  A
C1153      C1158   1.411       .  A
C1154      C1155   1.395       .  A
C1154      H1159   1.083       .  S
C1155      C1156   1.407       .  A
C1155      O1160   1.372       .  S
C1156      C1157   1.404       .  A
C1157      C1158   1.405       .  A
C1157      H1161   1.083       .  S
C1158      O1162   1.372       .  S
O1160      H1164   0.992       .  S
O1162      H1163   0.992       .  S
C1165      C1166   1.403       .  A
C1165      C1170   1.408       .  A
C1166      C1167   1.404       .  A
C1166      H1171   1.084       .  S
C1167      C1168   1.411       .  A
C1167      O1172   1.371       .  S
C1168      C1169   1.404       .  A
C1169      C1170   1.396       .  A
C1169      H1173   1.083       .  S
C1170      O1174   1.373       .  S
O1172      H1176   0.992       .  S
O1174      H1175   0.992       .  S
C1177      C1178   1.404       .  A
C1177      C1182   1.408       .  A
C1178      C1179   1.404       .  A
C1178      H1183   1.083       .  S
C1179      C1180   1.410       .  A
C1179      O1184   1.372       .  S
C1180      C1181   1.404       .  A
C1181      C1182   1.396       .  A
C1181      H1185   1.084       .  S
C1182      O1186   1.372       .  S
O1184      H1188   0.992       .  S
O1186      H1187   0.992       .  S
C1189      C1190   1.403       .  A
C1189      C1194   1.407       .  A
C1190      C1191   1.396       .  A
C1190      H1195   1.084       .  S
C1191      C1192   1.409       .  A
C1191      O1196   1.372       .  S
C1192      C1193   1.406       .  A
C1193      C1194   1.404       .  A
C1193      H1197   1.083       .  S
C1194      O1198   1.372       .  S
O1196      H1200   0.992       .  S
O1198      H1199   0.992       .  S
C1201      C1202   1.407       .  A
C1201      C1206   1.412       .  A
C1202      C1203   1.396       .  A
C1202      H1207   1.083       .  S
C1203      C1204   1.406       .  A
C1203      O1208   1.372       .  S
C1204      C1205   1.403       .  A
C1205      C1206   1.405       .  A
C1205      H1209   1.084       .  S
C1206      O1210   1.372       .  S
O1208      H1212   0.992       .  S
O1210      H1211   0.992       .  S
C1213      C1214   1.399       .  A
C1213      C1218   1.404       .  A
C1214      C1215   1.396       .  A
C1214      H1219   1.084       .  S
C1215      C1216   1.414       .  A
C1215      O1220   1.371       .  S
C1216      C1217   1.410       .  A
C1217      C1218   1.404       .  A
C1217      H1221   1.083       .  S
C1218      O1222   1.371       .  S
O1220      H1224   0.992       .  S
O1222      H1223   0.992       .  S
C1225      C1226   1.405       .  A
C1225      C1230   1.411       .  A
C1226      C1227   1.396       .  A
C1226      H1231   1.083       .  S
C1227      C1228   1.409       .  A
C1227      O1232   1.372       .  S
C1228      C1229   1.405       .  A
C1229      C1230   1.405       .  A
C1229      H1233   1.083       .  S
C1230      O1234   1.372       .  S
O1232      H1236   0.992       .  S
O1234      H1235   0.992       .  S
C1237      C1238   1.404       .  A
C1237      C1242   1.408       .  A
C1238      C1239   1.405       .  A
C1238      H1243   1.083       .  S
C1239      C1240   1.412       .  A
C1239      O1244   1.372       .  S
C1240      C1241   1.405       .  A
C1241      C1242   1.395       .  A
C1241      H1245   1.083       .  S
C1242      O1246   1.371       .  S
O1244      H1248   0.992       .  S
O1246      H1247   0.992       .  S
C1249      C1250   1.401       .  A
C1249      C1254   1.408       .  A
C1250      C1251   1.398       .  A
C1250      H1255   1.084       .  S
C1251      C1252   1.412       .  A
C1251      O1256   1.372       .  S
C1252      C1253   1.406       .  A
C1253      C1254   1.404       .  A
C1253      H1257   1.083       .  S
C1254      O1258   1.372       .  S
O1256      H1260   0.992       .  S
O1258      H1259   0.992       .  S
C1261      C1262   1.405       .  A
C1261      C1266   1.412       .  A
C1262      C1263   1.396       .  A
C1262      H1267   1.083       .  S
C1263      C1264   1.407       .  A
C1263      O1268   1.372       .  S
C1264      C1265   1.403       .  A
C1265      C1266   1.405       .  A
C1265      H1269   1.084       .  S
C1266      O1270   1.371       .  S
O1268      H1272   0.992       .  S
O1270      H1271   0.992       .  S
C1273      C1274   1.407       .  A
C1273      C1278   1.412       .  A
C1274      C1275   1.403       .  A
C1274      H1279   1.083       .  S
C1275      C1276   1.409       .  A
C1275      O1280   1.371       .  S
C1276      C1277   1.400       .  A
C1277      C1278   1.395       .  A
C1277      H1281   1.084       .  S
C1278      O1282   1.371       .  S
O1280      H1284   0.992       .  S
O1282      H1283   0.992       .  S
C1285      C1286   1.404       .  A
C1285      C1290   1.409       .  A
C1286      C1287   1.403       .  A
C1286      H1291   1.084       .  S
C1287      C1288   1.410       .  A
C1287      O1292   1.371       .  S
C1288      C1289   1.404       .  A
C1289      C1290   1.398       .  A
C1289      H1293   1.083       .  S
C1290      O1294   1.372       .  S
O1292      H1296   0.992       .  S
O1294      H1295   0.992       .  S
C1297      C1298   1.405       .  A
C1297      C1302   1.410       .  A
C1298      C1299   1.404       .  A
C1298      H1303   1.083       .  S
C1299      C1300   1.410       .  A
C1299      O1304   1.371       .  S
C1300      C1301   1.401       .  A
C1301      C1302   1.395       .  A
C1301      H1305   1.083       .  S
C1302      O1306   1.372       .  S
O1304      H1308   0.992       .  S
O1306      H1307   0.992       .  S
