geometry optimzed in LAMMPS
_audit_creation_date              2020-12-01 
_audit_creation_method            'lammps2cif' 
_symmetry_space_group_name_H-M    'P1' 
_symmetry_Int_Tables_number       1 
_symmetry_cell_setting            triclinic 
loop_ 
_symmetry_equiv_pos_as_xyz 
  x,y,z 
_cell_length_a                    44.97342859 
_cell_length_b                    45.087379037758666 
_cell_length_c                    32.24169480520766 
_cell_angle_alpha                 89.93902168580074 
_cell_angle_beta                  90.09332244287528 
_cell_angle_gamma                 89.879400749361 
loop_ 
_atom_site_label 
_atom_site_type_symbol 
_atom_site_fract_x 
_atom_site_fract_y 
_atom_site_fract_z 
_atom_site_charge 
N1          N  0.80567965  0.94584876  0.02884985    -0.26500
N2          N  0.82867199  0.94044709  0.05323144    -0.34400
C3          C  0.84321711  0.96569368  0.06085350     0.01800
C4          C  0.82894381  0.98853322  0.04039431     0.07800
C5          C  0.80498441  0.97526131  0.02037297    -0.05300
H6          H  0.86367331  0.96693382  0.07843883     0.08500
H7          H  0.78906285  0.98591684  0.00002724     0.09700
Cu8        Cu  0.84397266  0.89893281  0.06848887     0.44200
Cu9        Cu  0.77924501  0.91068454  0.00820267     0.42000
Cu10       Cu  0.81704304  0.83609388  0.01782527     0.43900
N11         N  0.86922075  0.86124845  0.06224555    -0.33900
N12         N  0.86063200  0.83779605  0.04096927    -0.28200
C13         C  0.88433892  0.81956478  0.03615512    -0.04300
C14         C  0.90881787  0.83259670  0.05532806     0.07900
C15         C  0.89814495  0.85885730  0.07157143     0.01700
H16         H  0.88416821  0.79926372  0.01830711     0.09400
H17         H  0.91088766  0.87610660  0.08659391     0.08500
N18         N  0.77192706  0.84321388  0.00376414    -0.35400
N19         N  0.75866496  0.86940389  0.00023010    -0.27600
C20         C  0.72941432  0.86511538  0.99332156    -0.02800
C21         C  0.72371937  0.83486907  0.99278098     0.05800
C22         C  0.75132696  0.82181210  0.99916317     0.03900
H23         H  0.71352191  0.88288537  0.98909842     0.09000
H24         H  0.75597765  0.79832250  0.00161277     0.07900
N25         N  0.98392520  0.80275702  0.03945949    -0.26500
N26         N  0.98949502  0.82780820  0.05908035    -0.34400
C27         C  0.96379301  0.84116203  0.06877368     0.01800
C28         C  0.94055951  0.82390725  0.05443280     0.07800
C29         C  0.95412371  0.79953025  0.03598847    -0.05300
H30         H  0.96228016  0.86273618  0.08325580     0.08500
H31         H  0.94323837  0.78143812  0.02007299     0.09700
Cu32       Cu  0.03150683  0.84563859  0.06517828     0.44200
Cu33       Cu  0.01913189  0.77688380  0.01783135     0.42000
Cu34       Cu  0.09438630  0.81518001  0.01550869     0.43900
N35         N  0.07017044  0.86925215  0.05578573    -0.33900
N36         N  0.09359618  0.85936520  0.03538743    -0.28200
C37         C  0.11287285  0.88215090  0.03013608    -0.04300
C38         C  0.10056982  0.90740996  0.04818797     0.07900
C39         C  0.07366933  0.89806944  0.06416473     0.01700
H40         H  0.13359662  0.88072317  0.01326326     0.09400
H41         H  0.05691210  0.91155772  0.07907715     0.08500
N42         N  0.08644972  0.76983527  0.00632518    -0.35400
N43         N  0.06017442  0.75652658  0.00702233    -0.27600
C44         C  0.06425494  0.72710476  0.00263563    -0.02800
C45         C  0.09445689  0.72137347  0.99947265     0.05800
C46         C  0.10770972  0.74907250  0.00151100     0.03900
H47         H  0.04637418  0.71112471  0.00209498     0.09000
H48         H  0.13129147  0.75374631  0.00104885     0.07900
N49         N  0.95314417  0.12818683  0.03593795    -0.26500
N50         N  0.94757100  0.10308436  0.05551048    -0.34400
C51         C  0.97311566  0.08998608  0.06631571     0.01800
C52         C  0.99643864  0.10722930  0.05264691     0.07800
C53         C  0.98303111  0.13155818  0.03351583    -0.05300
H54         H  0.97442944  0.06831358  0.08059829     0.08500
H55         H  0.99408719  0.14951849  0.01753239     0.09700
Cu56       Cu  0.90663238  0.08320148  0.05882250     0.44200
Cu57       Cu  0.91763548  0.15358617  0.01282618     0.42000
Cu58       Cu  0.84471325  0.11155315  0.00722042     0.43900
N59         N  0.86989400  0.05767515  0.04646775    -0.33900
N60         N  0.84651682  0.06727122  0.02563951    -0.28200
C61         C  0.82754621  0.04436301  0.02008351    -0.04300
C62         C  0.83995800  0.01933126  0.03851024     0.07900
C63         C  0.86675380  0.02877560  0.05476318     0.01700
H64         H  0.80658255  0.04575198  0.00369334     0.09400
H65         H  0.88329559  0.01549048  0.07061077     0.08500
N66         N  0.85013643  0.15717274  0.99909593    -0.35400
N67         N  0.87550614  0.17207579  0.00093503    -0.27600
C68         C  0.86939337  0.20127752  0.99768143    -0.02800
C69         C  0.83888360  0.20504047  0.99341662     0.05800
C70         C  0.82753730  0.17651879  0.99468024     0.03900
H71         H  0.88592336  0.21861631  0.99966774     0.09000
H72         H  0.80435057  0.17022820  0.99490453     0.07900
N73         N  0.13355201  0.98177123  0.03653074    -0.26500
N74         N  0.10811189  0.98741342  0.05529553    -0.34400
C75         C  0.09373324  0.96205509  0.06269586     0.01800
C76         C  0.11057686  0.93872509  0.04795659     0.07800
C77         C  0.13594826  0.95198352  0.03144191    -0.05300
H78         H  0.07183028  0.96097182  0.07637734     0.08500
H79         H  0.15423604  0.94094322  0.01606302     0.09700
Cu80       Cu  0.09073598  0.02902555  0.06497912     0.44200
Cu81       Cu  0.16063382  0.01753214  0.01885471     0.42000
Cu82       Cu  0.11977274  0.09221064  0.01932996     0.43900
N83         N  0.06643825  0.06750719  0.05970880    -0.33900
N84         N  0.07598280  0.09139207  0.04029309    -0.28200
C85         C  0.05300103  0.11061172  0.03608267    -0.04300
C86         C  0.02793794  0.09777154  0.05382713     0.07900
C87         C  0.03757706  0.07060773  0.06860040     0.01700
H88         H  0.05408147  0.13151538  0.01966076     0.09400
H89         H  0.02418523  0.05329889  0.08230214     0.08500
N90         N  0.16503778  0.08531758  0.00860560    -0.35400
N91         N  0.17954913  0.05964054  0.00897088    -0.27600
C92         C  0.20877951  0.06513216  0.00379522    -0.02800
C93         C  0.21286542  0.09547554  0.99953062     0.05800
C94         C  0.18463697  0.10743682  0.00303848     0.03900
H95         H  0.22591427  0.04825465  0.00377687     0.09000
H96         H  0.17877864  0.13071026  0.00348477     0.07900
C97         C  0.48720504  0.67181872  0.97909930     0.30800
C98         C  0.53519538  0.70951031  0.97753629     0.30800
C99         C  0.49538810  0.68642783  0.02026543    -0.05400
C100        C  0.51732796  0.65762520  0.96665795    -0.06200
C101        C  0.48478503  0.69829400  0.94920641    -0.06100
C102        C  0.51908595  0.70606995  0.01951556    -0.05400
C103        C  0.54151783  0.67710688  0.96462746    -0.06200
C104        C  0.50946013  0.71754599  0.94750086    -0.06100
C105        C  0.52123599  0.71806973  0.05892832    -0.31500
N106        N  0.49993087  0.70556696  0.08319008     0.15000
C107        C  0.48446035  0.68585222  0.06005103    -0.31500
H108        H  0.46601978  0.67270356  0.07122961     0.17000
C109        C  0.56662933  0.66033942  0.95679277    -0.30500
N110        N  0.55881373  0.63135238  0.95690077     0.13700
C111        C  0.52926818  0.62937308  0.96439245    -0.30500
C112        C  0.50999673  0.72794964  0.90686450    -0.30800
N113        N  0.48594548  0.71784600  0.88604842     0.14200
H114        H  0.52849036  0.73876426  0.89173249     0.16900
C115        C  0.47108395  0.69909189  0.91102679    -0.30800
H116        H  0.45381296  0.68416327  0.90052883     0.16900
H117        H  0.51827932  0.60867072  0.97124135     0.16900
H118        H  0.53704074  0.73458011  0.06920759     0.16900
H119        H  0.58925880  0.66829816  0.95471512     0.16900
C120        C  0.21658440  0.53156544  0.98341412     0.30800
C121        C  0.25155816  0.48141174  0.98226856     0.30800
C122        C  0.21261089  0.51085926  0.94558281    -0.05400
C123        C  0.25054455  0.53668351  0.98222309    -0.06200
C124        C  0.21287004  0.51010345  0.02040806    -0.06100
C125        C  0.22994819  0.48514117  0.94600148    -0.05400
C126        C  0.26822362  0.51121489  0.98313345    -0.06200
C127        C  0.23105545  0.48488025  0.01997188    -0.06100
C128        C  0.22787832  0.47208438  0.90770630    -0.31500
N129        N  0.21106662  0.48968247  0.88317442     0.15000
C130        C  0.20253695  0.51385465  0.90513802    -0.31500
H131        H  0.19162366  0.53293953  0.89156795     0.17000
C132        C  0.29738466  0.52038288  0.98528119    -0.30500
N133        N  0.29798915  0.55044975  0.98365190     0.13700
C134        C  0.26962378  0.56062310  0.98089136    -0.30500
C135        C  0.23314434  0.47527434  0.06038477    -0.30800
N136        N  0.21492547  0.49174404  0.08438528     0.14200
H137        H  0.24838085  0.45874678  0.07238062     0.16900
C138        C  0.20271653  0.51343207  0.06064838    -0.30800
H139        H  0.18961436  0.53167049  0.07256666     0.16900
H140        H  0.26343844  0.58378867  0.97888878     0.16900
H141        H  0.23981608  0.45262864  0.89720006     0.16900
H142        H  0.31683819  0.50628953  0.98734390     0.16900
C143        C  0.68500623  0.44736672  0.98330540     0.30800
C144        C  0.71724382  0.39611201  0.99445947     0.30800
C145        C  0.70770907  0.44775129  0.01920526    -0.05400
C146        C  0.66675464  0.41934992  0.99370382    -0.06200
C147        C  0.70391849  0.43739684  0.94695819    -0.06100
C148        C  0.72385361  0.42136455  0.02561233    -0.05400
C149        C  0.68306512  0.39303606  0.99800224    -0.06200
C150        C  0.71990654  0.41132811  0.95169737    -0.06100
C151        C  0.72960610  0.42009481  0.06797635    -0.31500
N152        N  0.71944221  0.44516235  0.08682272     0.15000
C153        C  0.70532520  0.46123985  0.05726295    -0.31500
H154        H  0.69168802  0.48041864  0.06330296     0.17000
C155        C  0.66263758  0.37025100  0.99698809    -0.30500
N156        N  0.63483374  0.38185960  0.99579125     0.13700
C157        C  0.63705046  0.41183380  0.99415421    -0.30500
C158        C  0.73393016  0.40622836  0.91411931    -0.30800
N159        N  0.72742750  0.42911824  0.88811345     0.14200
H160        H  0.74800993  0.38756119  0.90637851     0.16900
C161        C  0.70910452  0.44816151  0.90801889    -0.30800
H162        H  0.69982708  0.46820929  0.89470212     0.16900
H163        H  0.61843272  0.42682190  0.99043489     0.16900
H164        H  0.73736269  0.40053901  0.08414612     0.16900
H165        H  0.66726076  0.34681377  0.99439708     0.16900
C166        C  0.40251862  0.21729546  0.98585145     0.30800
C167        C  0.45044568  0.25477410  0.98611134     0.30800
C168        C  0.42550528  0.21210430  0.95105281    -0.05400
C169        C  0.39537360  0.25050102  0.97926334    -0.06200
C170        C  0.42139607  0.21769539  0.02566348    -0.06100
C171        C  0.45040338  0.23103299  0.95207962    -0.05400
C172        C  0.41968730  0.26972931  0.98068442    -0.06200
C173        C  0.44538192  0.23696066  0.02582513    -0.06100
C174        C  0.46051952  0.23379784  0.91201407    -0.31500
N175        N  0.44293419  0.21787178  0.88653013     0.15000
C176        C  0.42107513  0.20549356  0.90944483    -0.31500
H177        H  0.40163674  0.19491015  0.89632583     0.17000
C178        C  0.40815266  0.29811747  0.98140287    -0.30500
N179        N  0.37830034  0.29663466  0.97664963     0.13700
C180        C  0.37013238  0.26775312  0.97521253    -0.30500
C181        C  0.45768630  0.23615810  0.06483995    -0.30800
N182        N  0.44235034  0.21641576  0.08816500     0.14200
H183        H  0.47622191  0.24927785  0.07582271     0.16900
C184        C  0.41998472  0.20502079  0.06465055    -0.30800
H185        H  0.40385236  0.18891463  0.07516980     0.16900
H186        H  0.34739644  0.26012125  0.97305478     0.16900
H187        H  0.47769975  0.24884581  0.90162612     0.16900
H188        H  0.41999564  0.31857433  0.98688448     0.16900
N189        N  0.95062964  0.80008914  0.50398814    -0.26500
N190        N  0.94976845  0.82666173  0.48678502    -0.34400
C191        C  0.97631057  0.83977332  0.49106113     0.01800
C192        C  0.99513693  0.82041403  0.51134698     0.07800
C193        C  0.97825801  0.79530761  0.51912114    -0.05300
H194        H  0.98112981  0.86233750  0.48183137     0.08500
H195        H  0.98493193  0.77596965  0.53673965     0.09700
Cu196      Cu  0.91147127  0.84617886  0.46485347     0.44200
Cu197      Cu  0.91198655  0.77493699  0.50935739     0.42000
Cu198      Cu  0.84057849  0.81606868  0.48863945     0.43900
N199        N  0.87282096  0.87051302  0.46176894    -0.33900
N200        N  0.84635983  0.86078352  0.47300408    -0.28200
C201        C  0.82735488  0.88412012  0.47404520    -0.04300
C202        C  0.84297917  0.90951506  0.46291475     0.07900
C203        C  0.87157037  0.89976814  0.45518125     0.01700
H204        H  0.80440627  0.88292250  0.48389024     0.09400
H205        H  0.89075021  0.91319131  0.44782162     0.08500
N206        N  0.84453918  0.77025074  0.49868100    -0.35400
N207        N  0.86972378  0.75597729  0.50653108    -0.27600
C208        C  0.86406809  0.72675832  0.50936036    -0.02800
C209        C  0.83402725  0.72203501  0.50218005     0.05800
C210        C  0.82238060  0.75025785  0.49607036     0.03900
H211        H  0.88086299  0.71023843  0.51598212     0.09000
H212        H  0.79954608  0.75581447  0.48880834     0.07900
N213        N  0.81073779  0.98419758  0.47360605    -0.26500
N214        N  0.83873222  0.98979639  0.46430570    -0.34400
C215        C  0.85336368  0.96439560  0.45798511     0.01800
C216        C  0.83399429  0.94108963  0.46376171     0.07800
C217        C  0.80690556  0.95437708  0.47366109    -0.05300
H218        H  0.87693865  0.96313854  0.45167697     0.08500
H219        H  0.78634915  0.94325575  0.48135719     0.09700
Cu220      Cu  0.85835896  0.03064582  0.46766706     0.44200
Cu221      Cu  0.78190314  0.01970740  0.48651825     0.42000
Cu222      Cu  0.82100791  0.09433971  0.49839898     0.43900
N223        N  0.88072218  0.06777474  0.48662231    -0.33900
N224        N  0.86741765  0.09245650  0.49838409    -0.28200
C225        C  0.88829662  0.11142039  0.51276442    -0.04300
C226        C  0.91578449  0.09737278  0.51030292     0.07900
C227        C  0.90997002  0.06981282  0.49376471     0.01700
H228        H  0.88364241  0.13281882  0.52646779     0.09400
H229        H  0.92571351  0.05197459  0.48890035     0.08500
N230        N  0.77504328  0.08723565  0.49677250    -0.35400
N231        N  0.76124975  0.06137433  0.49307267    -0.27600
C232        C  0.73166656  0.06633764  0.49255217    -0.02800
C233        C  0.72644847  0.09656654  0.49643206     0.05800
C234        C  0.75456903  0.10899201  0.49863893     0.03900
H235        H  0.71510377  0.04912633  0.48931617     0.09000
H236        H  0.75998175  0.13231631  0.50014176     0.07900
N237        N  0.13067753  0.94233011  0.53059842    -0.26500
N238        N  0.10521489  0.93673855  0.54943962    -0.34400
C239        C  0.09153211  0.96225495  0.55874751     0.01800
C240        C  0.10879231  0.98557813  0.54512055     0.07800
C241        C  0.13369106  0.97218032  0.52741583    -0.05300
H242        H  0.06970205  0.96353937  0.57264831     0.08500
H243        H  0.15198190  0.98323178  0.51213827     0.09700
Cu244      Cu  0.08597413  0.89556241  0.55548445     0.44200
Cu245      Cu  0.15765422  0.90721417  0.50907966     0.42000
Cu246      Cu  0.11838785  0.83370877  0.50942881     0.43900
N247        N  0.06204587  0.85757463  0.54380936    -0.33900
N248        N  0.07376641  0.83403925  0.52584152    -0.28200
C249        C  0.05171582  0.81526261  0.51520630    -0.04300
C250        C  0.02489399  0.82794227  0.52687201     0.07900
C251        C  0.03237503  0.85477590  0.54465071     0.01700
H252        H  0.05469332  0.79561648  0.49641632     0.09400
H253        H  0.01720701  0.87223962  0.55379144     0.08500
N254        N  0.16309752  0.84008481  0.49586960    -0.35400
N255        N  0.17733278  0.86580897  0.49509322    -0.27600
C256        C  0.20628687  0.86043286  0.48683004    -0.02800
C257        C  0.21040786  0.83001623  0.48233603     0.05800
C258        C  0.18250105  0.81801377  0.48844107     0.03900
H259        H  0.22334649  0.87730146  0.48618445     0.09000
H260        H  0.17675383  0.79472437  0.48844095     0.07900
N261        N  0.98932098  0.12765460  0.52988868    -0.26500
N262        N  0.99160476  0.10104450  0.54670545    -0.34400
C263        C  0.96508435  0.08757672  0.54527786     0.01800
C264        C  0.94481056  0.10659102  0.52698699     0.07800
C265        C  0.96089027  0.13196232  0.51759933    -0.05300
H266        H  0.96144634  0.06459242  0.55349062     0.08500
H267        H  0.95326992  0.15074085  0.49954084     0.09700
Cu268      Cu  0.03171971  0.08095636  0.56020823     0.44200
Cu269      Cu  0.02731491  0.15274194  0.51851306     0.42000
Cu270      Cu  0.09953210  0.11089470  0.52046794     0.43900
N271        N  0.07009773  0.05625738  0.55374421    -0.33900
N272        N  0.09500943  0.06595449  0.53687170    -0.28200
C273        C  0.11363731  0.04255491  0.53186161    -0.04300
C274        C  0.09948995  0.01715227  0.54643216     0.07900
C275        C  0.07207606  0.02696866  0.56011020     0.01700
H276        H  0.13535641  0.04376480  0.51760284     0.09400
H277        H  0.05404433  0.01357319  0.57189554     0.08500
N278        N  0.09498387  0.15688488  0.51066389    -0.35400
N279        N  0.06934313  0.17142251  0.51050552    -0.27600
C280        C  0.07462579  0.20049099  0.50476561    -0.02800
C281        C  0.10499500  0.20484548  0.50038104     0.05800
C282        C  0.11712992  0.17659422  0.50477778     0.03900
H283        H  0.05741809  0.21724895  0.50504408     0.09000
H284        H  0.14045304  0.17074042  0.50374180     0.07900
C285        C  0.68259220  0.47724963  0.49402175     0.30800
C286        C  0.71600499  0.52840431  0.49545489     0.30800
C287        C  0.70181890  0.48300955  0.45551594    -0.05400
C288        C  0.66517959  0.50655558  0.49688953    -0.06200
C289        C  0.70530988  0.47973664  0.52910525    -0.06100
C290        C  0.71893905  0.50900066  0.45603095    -0.05400
C291        C  0.68207563  0.53235943  0.49945324    -0.06200
C292        C  0.72199539  0.50582508  0.53090867    -0.06100
C293        C  0.72612287  0.51523642  0.41510082    -0.31500
N294        N  0.71335202  0.49453857  0.39028216     0.15000
C295        C  0.69820004  0.47540737  0.41457078    -0.31500
H296        H  0.68384865  0.45816176  0.40272964     0.17000
C297        C  0.66236168  0.55558522  0.50378144    -0.30500
N298        N  0.63432353  0.54472875  0.50129466     0.13700
C299        C  0.63571042  0.51494852  0.49631064    -0.30500
C300        C  0.73268864  0.50725185  0.57131446    -0.30800
N301        N  0.72523702  0.48197897  0.59170759     0.14200
H302        H  0.74269595  0.52625146  0.58623663     0.16900
C303        C  0.70832626  0.46522765  0.56622142    -0.30800
H304        H  0.69699046  0.44510023  0.57532966     0.16900
H305        H  0.61663642  0.50058043  0.49267674     0.16900
H306        H  0.73760364  0.53467326  0.40390954     0.16900
H307        H  0.66782235  0.57881863  0.50718236     0.16900
C308        C  0.48339847  0.25000802  0.48068080     0.30800
C309        C  0.53338339  0.21486175  0.48467000     0.30800
C310        C  0.48472078  0.22436650  0.44907450    -0.05400
C311        C  0.51314185  0.26583051  0.47240705    -0.06200
C312        C  0.48903572  0.23382268  0.52167586    -0.06100
C313        C  0.51029461  0.20623075  0.45135731    -0.05400
C314        C  0.53858543  0.24817236  0.47581758    -0.06200
C315        C  0.51463584  0.21662656  0.52457370    -0.06100
C316        C  0.51425102  0.19385203  0.41247417    -0.31500
N317        N  0.49211719  0.20334080  0.38730867     0.15000
C318        C  0.47522681  0.22291821  0.40836962    -0.31500
H319        H  0.45953562  0.23768014  0.39340002     0.17000
C320        C  0.56211022  0.26741610  0.48146050    -0.30500
N321        N  0.55209801  0.29567324  0.47802472     0.13700
C322        C  0.52236278  0.29499649  0.47148520    -0.30500
C323        C  0.51620775  0.20677980  0.56523522    -0.30800
N324        N  0.49150542  0.21628137  0.58561170     0.14200
H325        H  0.53392464  0.19384757  0.57909175     0.16900
C326        C  0.47493934  0.23287116  0.55929401    -0.30800
H327        H  0.45456786  0.24425296  0.56750380     0.16900
H328        H  0.50830336  0.31446869  0.46995795     0.16900
H329        H  0.53359539  0.18165014  0.40205636     0.16900
H330        H  0.58465363  0.26150038  0.48984095     0.16900
C331        C  0.45428794  0.67824706  0.48409569     0.30800
C332        C  0.40454863  0.71385773  0.48073640     0.30800
C333        C  0.45084902  0.69736395  0.44468061    -0.05400
C334        C  0.42402565  0.66223429  0.48488654    -0.06200
C335        C  0.45133000  0.70142268  0.51871263    -0.06100
C336        C  0.42590888  0.71579479  0.44329502    -0.05400
C337        C  0.39891939  0.68030149  0.48461649    -0.06200
C338        C  0.42561462  0.71907654  0.51820647    -0.06100
C339        C  0.42542751  0.72901192  0.40449971    -0.31500
N340        N  0.44890926  0.71870182  0.38220824     0.15000
C341        C  0.46367476  0.69859915  0.40587966    -0.31500
H342        H  0.48113239  0.68439997  0.39417233     0.17000
C343        C  0.37451401  0.66197513  0.48797482    -0.30500
N344        N  0.38405600  0.63338328  0.48876070     0.13700
C345        C  0.41415065  0.63327758  0.48582302    -0.30500
C346        C  0.42154978  0.72786589  0.55917692    -0.30800
N347        N  0.44515333  0.71884520  0.58228341     0.14200
H348        H  0.40193023  0.73811587  0.57219830     0.16900
C349        C  0.46337792  0.70272811  0.55786288    -0.30800
H350        H  0.48238724  0.69030054  0.56903804     0.16900
H351        H  0.42780574  0.61349540  0.48514019     0.16900
H352        H  0.40859860  0.74404069  0.39278464     0.16900
H353        H  0.35145760  0.66884993  0.48900788     0.16900
C354        C  0.21936336  0.39988254  0.48446137     0.30800
C355        C  0.25417820  0.45026828  0.48475878     0.30800
C356        C  0.21424255  0.42173789  0.52083801    -0.05400
C357        C  0.25312587  0.39493848  0.48780755    -0.06200
C358        C  0.21672746  0.42026843  0.44613309    -0.06100
C359        C  0.23145518  0.44762365  0.51984111    -0.05400
C360        C  0.27080265  0.42028954  0.48652006    -0.06200
C361        C  0.23455480  0.44566785  0.44614276    -0.06100
C362        C  0.22929583  0.46117377  0.55779500    -0.31500
N363        N  0.21265333  0.44383991  0.58269012     0.15000
C364        C  0.20477085  0.41913277  0.56160026    -0.31500
H365        H  0.19497270  0.39988339  0.57619180     0.17000
C366        C  0.29997190  0.41076750  0.48581833    -0.30500
N367        N  0.30040750  0.38076491  0.48926488     0.13700
C368        C  0.27195235  0.37088970  0.49054989    -0.30500
C369        C  0.23265059  0.45773141  0.40698165    -0.30800
N370        N  0.21325557  0.44158197  0.38426251     0.14200
H371        H  0.24586378  0.47560584  0.39439850     0.16900
C372        C  0.20368032  0.41835687  0.40740286    -0.30800
H373        H  0.18947686  0.40074856  0.39619853     0.16900
H374        H  0.26551729  0.34780678  0.49204099     0.16900
H375        H  0.24128583  0.48065318  0.56797021     0.16900
H376        H  0.31953313  0.42457633  0.48314620     0.16900
C377        C  0.35176882  0.55911481  0.46283743    -0.01300
C378        C  0.32879067  0.55668207  0.49230417     0.07300
C379        C  0.32483164  0.57931026  0.52159049    -0.07200
C380        C  0.34306119  0.60452250  0.52120663     0.04800
C381        C  0.36551115  0.60741536  0.49088601    -0.14500
C382        C  0.36991664  0.58432798  0.46236259    -0.07800
C383        C  0.30853015  0.53075368  0.49244822     0.05700
C384        C  0.31459486  0.50676113  0.51864133    -0.08900
C385        C  0.29676243  0.48126934  0.51792065     0.00700
C386        C  0.27335024  0.47853401  0.48830904     0.00600
C387        C  0.26557224  0.50427594  0.46580117    -0.12500
C388        C  0.28313099  0.52989244  0.46704959     0.01000
C389        C  0.30198978  0.45942405  0.54992476     0.40400
C390        C  0.27430610  0.55536206  0.44274978     0.37000
C391        C  0.35704958  0.53594370  0.43286180     0.36700
C392        C  0.33917977  0.62651965  0.55320475     0.37500
N393        N  0.30615792  0.44214866  0.57588581    -0.43300
N394        N  0.26719982  0.57585003  0.42346054    -0.43800
N395        N  0.33614025  0.64409818  0.57898540    -0.41100
N396        N  0.36125163  0.51727729  0.40896125    -0.42600
H397        H  0.38730903  0.58627666  0.43928537     0.13600
H398        H  0.30747402  0.57724394  0.54472057     0.10100
H399        H  0.33313291  0.50813790  0.54011983     0.11100
H400        H  0.24506920  0.50521425  0.44846356     0.17000
C401        C  0.37357076  0.34892820  0.45623060    -0.01300
C402        C  0.37771063  0.32619473  0.48569838     0.07300
C403        C  0.35645700  0.32194867  0.51685483    -0.07200
C404        C  0.33099585  0.33982192  0.51866933     0.04800
C405        C  0.32661629  0.36243354  0.48893074    -0.14500
C406        C  0.34820986  0.36693970  0.45818405    -0.07800
C407        C  0.40405280  0.30650205  0.48450488     0.05700
C408        C  0.42877995  0.31346124  0.50884860    -0.08900
C409        C  0.45396982  0.29514850  0.50910562     0.00700
C410        C  0.45544111  0.26983261  0.48270541     0.00600
C411        C  0.42931827  0.26195912  0.46105355    -0.12500
C412        C  0.40406179  0.28016391  0.46130285     0.01000
C413        C  0.47696233  0.30211737  0.53889138     0.40400
C414        C  0.37801452  0.27100074  0.43845203     0.37000
C415        C  0.39493833  0.35396983  0.42363132     0.36700
C416        C  0.31020661  0.33519605  0.55207269     0.37500
N417        N  0.49522961  0.30771638  0.56295968    -0.43300
N418        N  0.35706864  0.26367415  0.42029634    -0.43800
N419        N  0.29356250  0.33143478  0.57889643    -0.41100
N420        N  0.41203002  0.35800517  0.39744541    -0.42600
H421        H  0.34491171  0.38423815  0.43524800     0.13600
H422        H  0.35980062  0.30460523  0.53974461     0.10100
H423        H  0.42811500  0.33300923  0.52842834     0.11100
H424        H  0.42766990  0.24094473  0.44531857     0.17000
C425        C  0.65163114  0.39993632  0.46753825    -0.01300
C426        C  0.62693111  0.39782652  0.49405419     0.07300
C427        C  0.62255727  0.41963649  0.52428247    -0.07200
C428        C  0.64101197  0.44463555  0.52613314     0.04800
C429        C  0.66386963  0.44870633  0.49614220    -0.14500
C430        C  0.67025516  0.42467552  0.46967749    -0.07800
C431        C  0.60593664  0.37260018  0.49111414     0.05700
C432        C  0.60583508  0.35102498  0.52245605    -0.08900
C433        C  0.58779984  0.32584040  0.51908528     0.00700
C434        C  0.56957217  0.32201342  0.48377356     0.00600
C435        C  0.56869394  0.34427780  0.45342818    -0.12500
C436        C  0.58671741  0.36943407  0.45678031     0.01000
C437        C  0.58771077  0.30467276  0.55268900     0.40400
C438        C  0.58520377  0.39173238  0.42466905     0.37000
C439        C  0.65847436  0.37676249  0.43814371     0.36700
C440        C  0.63633715  0.46508141  0.55999118     0.37500
N441        N  0.58758537  0.28771638  0.57966449    -0.43300
N442        N  0.58405604  0.40964296  0.39897950    -0.43800
N443        N  0.63255978  0.48135182  0.58723475    -0.41100
N444        N  0.66381303  0.35823207  0.41447691    -0.42600
H445        H  0.69022318  0.42454238  0.45115742     0.13600
H446        H  0.60449217  0.41722544  0.54627222     0.10100
H447        H  0.62019736  0.35367602  0.54924805     0.11100
H448        H  0.55435592  0.34159724  0.42663828     0.17000
C449        C  0.56418910  0.58043627  0.46406499    -0.01300
C450        C  0.55746886  0.59943386  0.49754389     0.07300
C451        C  0.57531447  0.59874009  0.53326062    -0.07200
C452        C  0.60035592  0.58031191  0.53521342     0.04800
C453        C  0.60769449  0.56222326  0.50117841    -0.14500
C454        C  0.58919166  0.56195443  0.46616293    -0.07800
C455        C  0.53221118  0.62052837  0.49553142     0.05700
C456        C  0.50808059  0.61672414  0.52226210    -0.08900
C457        C  0.48345203  0.63573358  0.52036799     0.00700
C458        C  0.48188603  0.65830465  0.48942842     0.00600
C459        C  0.50793184  0.66400080  0.46653227    -0.12500
C460        C  0.53258993  0.64510200  0.46864829     0.01000
C461        C  0.46121093  0.63241428  0.55233641     0.40400
C462        C  0.55849992  0.65192396  0.44401713     0.37000
C463        C  0.54569508  0.57956744  0.42742541     0.36700
C464        C  0.61798068  0.57968031  0.57261636     0.37500
N465        N  0.44362162  0.62984463  0.57825958    -0.43300
N466        N  0.57929979  0.65731145  0.42433849    -0.43800
N467        N  0.63215850  0.57893705  0.60258415    -0.41100
N468        N  0.53081512  0.57897920  0.39812047    -0.42600
H469        H  0.59474808  0.54776311  0.44016672     0.13600
H470        H  0.56992101  0.61295424  0.55931367     0.10100
H471        H  0.50861367  0.59892702  0.54493043     0.11100
H472        H  0.50996863  0.68394675  0.44833373     0.17000
C473        C  0.16600957  0.26321896  0.50658808    -0.01300
C474        C  0.15284903  0.28779545  0.48666098     0.07300
C475        C  0.12423636  0.28488472  0.46994382    -0.07200
C476        C  0.10849945  0.25812254  0.47318242     0.04800
C477        C  0.12121260  0.23353132  0.49434483    -0.14500
C478        C  0.15021444  0.23649911  0.51038093    -0.07800
C479        C  0.16821480  0.31699837  0.48412743     0.05700
C480        C  0.19122318  0.32117886  0.45549005    -0.08900
C481        C  0.20681684  0.34813397  0.45352030     0.00700
C482        C  0.20025588  0.37144819  0.48187578     0.00600
C483        C  0.17498736  0.36788645  0.50722716    -0.12500
C484        C  0.15968380  0.34090442  0.50950438     0.01000
C485        C  0.22892474  0.35130540  0.42138597     0.40400
C486        C  0.13575505  0.33794545  0.53901756     0.37000
C487        C  0.19547502  0.26521672  0.52418269     0.36700
C488        C  0.07994959  0.25645904  0.45283484     0.37500
N489        N  0.24655369  0.35383985  0.39551460    -0.43300
N490        N  0.11674112  0.33548459  0.56290611    -0.43800
N491        N  0.05711353  0.25536550  0.43630390    -0.41100
N492        N  0.21912406  0.26694447  0.53816025    -0.42600
H493        H  0.16047023  0.21808565  0.52667818     0.13600
H494        H  0.11420244  0.30365333  0.45409689     0.10100
H495        H  0.19701960  0.30322600  0.43450162     0.11100
H496        H  0.16631619  0.38633802  0.52496756     0.17000
C497        C  0.26941484  0.77074465  0.49827944    -0.01300
C498        C  0.29290899  0.78105988  0.47332278     0.07300
C499        C  0.28883418  0.80685878  0.44963013    -0.07200
C500        C  0.26199716  0.82282173  0.45130758     0.04800
C501        C  0.23879352  0.81322018  0.47762521    -0.14500
C502        C  0.24271246  0.78678883  0.50027902    -0.07800
C503        C  0.32222366  0.76575723  0.47293500     0.05700
C504        C  0.32715178  0.74227453  0.44542331    -0.08900
C505        C  0.35405720  0.72641394  0.44597942     0.00700
C506        C  0.37635923  0.73311061  0.47592369     0.00600
C507        C  0.37211097  0.75861213  0.50049657    -0.12500
C508        C  0.34525916  0.77443427  0.49982113     0.01000
C509        C  0.35826338  0.70385701  0.41472387     0.40400
C510        C  0.34171439  0.79949041  0.52723176     0.37000
C511        C  0.27242824  0.74395135  0.52252999     0.36700
C512        C  0.25838220  0.84807607  0.42423991     0.37500
N513        N  0.36172840  0.68593947  0.38949627    -0.43300
N514        N  0.33881668  0.81956205  0.54920331    -0.43800
N515        N  0.25547723  0.86813591  0.40217176    -0.41100
N516        N  0.27485426  0.72243355  0.54185545    -0.42600
H517        H  0.22509494  0.77891841  0.52036625     0.13600
H518        H  0.30670986  0.81454231  0.42982780     0.09300
H519        H  0.30987940  0.73630910  0.42346361     0.11100
H520        H  0.38984590  0.76699274  0.51967449     0.17000
C521        C  0.64668977  0.11560649  0.46712796    -0.01300
C522        C  0.64175073  0.14213560  0.48913301     0.07300
C523        C  0.66440587  0.15329411  0.51458262    -0.07200
C524        C  0.69184460  0.13866550  0.51809363     0.04800
C525        C  0.69718995  0.11227883  0.49542396    -0.14500
C526        C  0.67414413  0.10088588  0.47052279    -0.07800
C527        C  0.61360716  0.15935030  0.48509144     0.05700
C528        C  0.58728427  0.14864121  0.50285260    -0.08900
C529        C  0.56090270  0.16543456  0.50144645     0.00700
C530        C  0.56104343  0.19456424  0.48460625     0.00600
C531        C  0.58672802  0.20331737  0.46265790    -0.12500
C532        C  0.61280960  0.18635084  0.46329079     0.01000
C533        C  0.53385712  0.15138324  0.51518544     0.40400
C534        C  0.63819352  0.19649440  0.43987785     0.37000
C535        C  0.62430457  0.10377296  0.43966209     0.36700
C536        C  0.71353836  0.15082777  0.54636502     0.37500
N537        N  0.51219590  0.13990477  0.52592377    -0.43300
N538        N  0.65845013  0.20447135  0.42082997    -0.43800
N539        N  0.73077989  0.16072878  0.56913249    -0.41100
N540        N  0.60633147  0.09441585  0.41756655    -0.42600
H541        H  0.67781401  0.08083119  0.45271917     0.13600
H542        H  0.66057805  0.17359880  0.53181625     0.10100
H543        H  0.58729629  0.12696962  0.51748244     0.11100
H544        H  0.58643380  0.22299062  0.44350861     0.17000
C545        C  0.77123987  0.66599240  0.51084058    -0.01300
C546        C  0.78486665  0.63943719  0.49748828     0.07300
C547        C  0.81466174  0.64023734  0.48473633    -0.07200
C548        C  0.83104497  0.66667165  0.48569664     0.04800
C549        C  0.81769354  0.69323134  0.50015129    -0.14500
C550        C  0.78764765  0.69242974  0.51221604    -0.07800
C551        C  0.76833440  0.61074227  0.49597253     0.05700
C552        C  0.74344196  0.60811068  0.47004780    -0.08900
C553        C  0.72702091  0.58169435  0.46815280     0.00700
C554        C  0.73466526  0.55716480  0.49398167     0.00600
C555        C  0.76136799  0.55927776  0.51682181    -0.12500
C556        C  0.77769114  0.58569954  0.51873311     0.01000
C557        C  0.70315138  0.58047622  0.43818392     0.40400
C558        C  0.80379132  0.58660899  0.54486152     0.37000
C559        C  0.74053713  0.66659126  0.52384521     0.36700
C560        C  0.86091648  0.66591050  0.46944301     0.37500
N561        N  0.68409551  0.57971440  0.41403244    -0.43300
N562        N  0.82471246  0.58728536  0.56578165    -0.43800
N563        N  0.88481183  0.66507870  0.45620904    -0.41100
N564        N  0.71587271  0.66705815  0.53400616    -0.42600
H565        H  0.77693022  0.71248564  0.52321859     0.13600
H566        H  0.82505609  0.62011164  0.47331869     0.10100
H567        H  0.73699947  0.62677978  0.45074519     0.11100
H568        H  0.77039431  0.54011269  0.53246445     0.17000
C569        C  0.49713234  0.22132425  0.70097178    -0.01300
C570        C  0.46849419  0.21202557  0.71309795     0.07300
C571        C  0.44848554  0.20181989  0.68299522    -0.07200
C572        C  0.45632694  0.20177688  0.64100702     0.04800
C573        C  0.48457817  0.21210570  0.62867830    -0.14500
C574        C  0.50499895  0.22119834  0.65895171    -0.07800
C575        C  0.45908833  0.21301207  0.75709254     0.05700
C576        C  0.45399664  0.24064895  0.77577340    -0.08900
C577        C  0.44727785  0.24257459  0.81806208     0.00700
C578        C  0.44576950  0.21653381  0.84224532     0.00600
C579        C  0.44940667  0.18885970  0.82313532    -0.12500
C580        C  0.45610710  0.18691534  0.78082070     0.01000
C581        C  0.44165016  0.27135552  0.83602559     0.40400
C582        C  0.46119910  0.15807720  0.76276073     0.37000
C583        C  0.51868106  0.23113053  0.73119494     0.36700
C584        C  0.43522864  0.19077146  0.61100173     0.37500
N585        N  0.43705449  0.29436160  0.85059307    -0.43300
N586        N  0.46533410  0.13501537  0.74812471    -0.43800
N587        N  0.41837281  0.18189798  0.58688426    -0.41100
N588        N  0.53586577  0.23893213  0.75558240    -0.42600
H589        H  0.52667373  0.22920787  0.64952403     0.13600
H590        H  0.42661128  0.19425463  0.69231084     0.10100
H591        H  0.45570478  0.26072246  0.75736712     0.11100
H592        H  0.44821381  0.16886884  0.84176867     0.17000
C593        C  0.48804329  0.19735854  0.18153312    -0.01300
C594        C  0.46694656  0.19958652  0.21373154     0.07300
C595        C  0.43715375  0.20588751  0.20364167    -0.07200
C596        C  0.42840341  0.21053124  0.16236020     0.04800
C597        C  0.44967795  0.20896010  0.13037243    -0.14500
C598        C  0.47929851  0.20211853  0.14038241    -0.07800
C599        C  0.47586322  0.19768485  0.25816544     0.05700
C600        C  0.49664562  0.21815561  0.27367244    -0.08900
C601        C  0.50374590  0.21887371  0.31594252     0.00700
C602        C  0.48987945  0.19907349  0.34342809     0.00600
C603        C  0.46983921  0.17803177  0.32804066    -0.12500
C604        C  0.46282844  0.17707371  0.28568483     0.01000
C605        C  0.52418557  0.24096879  0.33115230     0.40400
C606        C  0.44200349  0.15502655  0.27128476     0.37000
C607        C  0.51879643  0.19029950  0.18997298     0.36700
C608        C  0.39799950  0.21882129  0.15384694     0.37500
N609        N  0.54056229  0.25860159  0.34365730    -0.43300
N610        N  0.42528373  0.13737524  0.25975155    -0.43800
N611        N  0.37363243  0.22552846  0.14695038    -0.41100
N612        N  0.54344952  0.18473068  0.19683418    -0.42600
H613        H  0.49569585  0.20084194  0.11582502     0.13600
H614        H  0.42089369  0.20819976  0.22823869     0.10100
H615        H  0.50657261  0.23427526  0.25293088     0.11100
H616        H  0.45893015  0.16306596  0.34948154     0.17000
C617        C  0.70939230  0.45789850  0.70021493    -0.01300
C618        C  0.73800595  0.45833246  0.71824212     0.07300
C619        C  0.76224341  0.46827320  0.69465228    -0.07200
C620        C  0.75833497  0.47708158  0.65325214     0.04800
C621        C  0.72985173  0.47571610  0.63495917    -0.14500
C622        C  0.70562005  0.46636646  0.65891844    -0.07800
C623        C  0.74239201  0.44901561  0.76194909     0.05700
C624        C  0.73497054  0.41988969  0.77347553    -0.08900
C625        C  0.73229093  0.41201724  0.81532334     0.00700
C626        C  0.73721542  0.43353835  0.84620922     0.00600
C627        C  0.74736362  0.46178960  0.83463475    -0.12500
C628        C  0.75007712  0.46966681  0.79289873     0.01000
C629        C  0.72193920  0.38266287  0.82557882     0.40400
C630        C  0.75866200  0.49964699  0.78275529     0.37000
C631        C  0.68342746  0.44938843  0.72369975     0.36700
C632        C  0.78394809  0.48627685  0.62969487     0.37500
N633        N  0.71372746  0.35906543  0.83376245    -0.43300
N634        N  0.76569922  0.52364476  0.77471205    -0.43800
N635        N  0.80449004  0.49373517  0.61082726    -0.41100
N636        N  0.66264549  0.44258250  0.74253933    -0.42600
H637        H  0.68360982  0.46574510  0.64518594     0.13600
H638        H  0.78423449  0.46881753  0.70847562     0.10100
H639        H  0.72943581  0.40383338  0.74966452     0.11100
H640        H  0.75149320  0.47826088  0.85843041     0.17000
C641        C  0.69856373  0.48286280  0.18686211    -0.01300
C642        C  0.72012081  0.47209075  0.21491864     0.07300
C643        C  0.74169431  0.45207244  0.20021311    -0.07200
C644        C  0.74225956  0.44317628  0.15839428     0.04800
C645        C  0.71962089  0.45273824  0.13073557    -0.14500
C646        C  0.69769514  0.47222017  0.14627525    -0.07800
C647        C  0.71897806  0.48008057  0.25992328     0.05700
C648        C  0.69167239  0.47757914  0.28071986    -0.08900
C649        C  0.68890293  0.48517203  0.32244542     0.00700
C650        C  0.71436209  0.49299778  0.34565569     0.00600
C651        C  0.74161404  0.49621647  0.32499524    -0.12500
C652        C  0.74403104  0.49030188  0.28234640     0.01000
C653        C  0.65944766  0.48584158  0.34021989     0.40400
C654        C  0.77227400  0.49530200  0.26238282     0.37000
C655        C  0.67759514  0.50578000  0.19836620     0.36700
C656        C  0.76712622  0.42547543  0.14478289     0.37500
N657        N  0.63581451  0.48653306  0.35435378    -0.43300
N658        N  0.79494761  0.49936688  0.24646073    -0.43800
N659        N  0.78725158  0.41139836  0.13410090    -0.41100
N660        N  0.66091388  0.52419445  0.20760822    -0.42600
H661        H  0.67961534  0.47974739  0.12682375     0.13600
H662        H  0.75835156  0.44345842  0.22140624     0.10100
H663        H  0.67216756  0.46982269  0.26415615     0.11100
H664        H  0.76119333  0.50266104  0.34247560     0.17000
C665        C  0.58266058  0.32216667  0.96109143    -0.01300
C666        C  0.55712379  0.32864408  0.98467963     0.07300
C667        C  0.55710632  0.35334930  0.01106986    -0.07200
C668        C  0.58227156  0.37135780  0.01471186     0.04800
C669        C  0.60802317  0.36473814  0.99151116    -0.14500
C670        C  0.60778461  0.34020074  0.96463291    -0.07800
C671        C  0.53030299  0.30971569  0.98287919     0.05700
C672        C  0.53206264  0.28027383  0.99650099    -0.08900
C673        C  0.50690862  0.26205034  0.99648707     0.00700
C674        C  0.47872798  0.27377192  0.98486371     0.00600
C675        C  0.47818714  0.30228171  0.96690491    -0.12500
C676        C  0.50325270  0.32051291  0.96702648     0.01000
C677        C  0.51121125  0.23109063  0.00644614     0.40400
C678        C  0.50093808  0.34990409  0.94941056     0.37000
C679        C  0.58341514  0.29742889  0.93267558     0.36700
C680        C  0.58153846  0.39559121  0.04385261     0.37500
N681        N  0.51476427  0.20628422  0.01433235    -0.43300
N682        N  0.49906459  0.37348651  0.93543448    -0.43800
N683        N  0.58085285  0.41505179  0.06720780    -0.41100
N684        N  0.58397745  0.27757212  0.90997058    -0.42600
H685        H  0.62730144  0.33519876  0.94622041     0.13600
H686        H  0.53750917  0.35822738  0.02943717     0.10100
H687        H  0.55326426  0.27144345  0.00689671     0.11100
H688        H  0.45889325  0.31007936  0.95038582     0.17000
C689        C  0.18968332  0.45141144  0.78529688    -0.01300
C690        C  0.20292148  0.46994425  0.75533742     0.07300
C691        C  0.21666997  0.49638681  0.76783402    -0.07200
C692        C  0.21854977  0.50382672  0.80984915     0.04800
C693        C  0.20644319  0.48465073  0.83984481    -0.14500
C694        C  0.19182460  0.45875219  0.82729520    -0.07800
C695        C  0.20400199  0.46160870  0.71102617     0.05700
C696        C  0.18931883  0.47956393  0.68192889    -0.08900
C697        C  0.19142298  0.47343270  0.63955574     0.00700
C698        C  0.20826061  0.44899707  0.62596823     0.00600
C699        C  0.22254442  0.43071782  0.65493571    -0.12500
C700        C  0.22081722  0.43700776  0.69732232     0.01000
C701        C  0.17613058  0.49230722  0.61030142     0.40400
C702        C  0.23764350  0.41888084  0.72594712     0.37000
C703        C  0.17395996  0.42479584  0.77363121     0.36700
C704        C  0.23457958  0.53016610  0.82175851     0.37500
N705        N  0.16386238  0.50736201  0.58672114    -0.43300
N706        N  0.25112690  0.40441830  0.74895976    -0.43800
N707        N  0.24745432  0.55125629  0.83144118    -0.41100
N708        N  0.16137998  0.40346921  0.76421439    -0.42600
H709        H  0.18247080  0.44411873  0.85055185     0.13600
H710        H  0.22685701  0.51067044  0.74481507     0.10100
H711        H  0.17649464  0.49853392  0.69236001     0.11100
H712        H  0.23590587  0.41222972  0.64417250     0.17000
C713        C  0.21824564  0.43363467  0.26947811    -0.01300
C714        C  0.20660471  0.46119832  0.25618049     0.07300
C715        C  0.19408840  0.48052445  0.28537215    -0.07200
C716        C  0.19473063  0.47355956  0.32764769     0.04800
C717        C  0.20760025  0.44669802  0.34109704    -0.14500
C718        C  0.21853084  0.42656008  0.31178590    -0.07800
C719        C  0.20880833  0.47108367  0.21244003     0.05700
C720        C  0.18276877  0.47482490  0.18891648    -0.08900
C721        C  0.18428302  0.48317119  0.14706856     0.00700
C722        C  0.21217468  0.48792423  0.12840744     0.00600
C723        C  0.23807385  0.48538011  0.15245986    -0.12500
C724        C  0.23661186  0.47726065  0.19421945     0.01000
C725        C  0.15718856  0.48507436  0.12321950     0.40400
C726        C  0.26390156  0.47552411  0.21778593     0.37000
C727        C  0.23074211  0.41269316  0.24044649     0.36700
C728        C  0.18262470  0.49448215  0.35695173     0.37500
N729        N  0.13548758  0.48664275  0.10399739    -0.43300
N730        N  0.28576641  0.47412884  0.23666719    -0.43800
N731        N  0.17286217  0.51129330  0.38038735    -0.41100
N732        N  0.24092156  0.39595351  0.21725362    -0.42600
H733        H  0.22860225  0.40599684  0.32225117     0.13600
H734        H  0.18488391  0.50158307  0.27524990     0.10100
H735        H  0.16133219  0.47047324  0.20300052     0.11100
H736        H  0.25953539  0.48929447  0.13821001     0.17000
C737        C  0.27850710  0.40143344  0.00070499    -0.01300
C738        C  0.30363845  0.39963578  0.97507841     0.07300
C739        C  0.31052711  0.42340286  0.94889261    -0.07200
C740        C  0.29373553  0.44963484  0.94987045     0.04800
C741        C  0.27013035  0.45284755  0.97887643    -0.14500
C742        C  0.26163535  0.42743756  0.00150158    -0.07800
C743        C  0.32301254  0.37310693  0.97557352     0.05700
C744        C  0.32139850  0.35270238  0.94285107    -0.08900
C745        C  0.33907102  0.32707028  0.94312417     0.00700
C746        C  0.35874527  0.32180829  0.97641734     0.00600
C747        C  0.36044574  0.34236279  0.00893094    -0.12500
C748        C  0.34268663  0.36782885  0.00884397     0.01000
C749        C  0.33767918  0.30710402  0.90825123     0.40400
C750        C  0.34521023  0.38846706  0.04288663     0.37000
C751        C  0.26942175  0.37667606  0.02614697     0.36700
C752        C  0.30046174  0.47202731  0.91924444     0.37500
N753        N  0.33666392  0.29107562  0.88027536    -0.43300
N754        N  0.34712157  0.40506174  0.07011174    -0.43800
N755        N  0.30585560  0.48980386  0.89445885    -0.41100
N756        N  0.26221843  0.35686879  0.04662418    -0.42600
H757        H  0.24122963  0.42717102  0.01907422     0.13600
H758        H  0.32912886  0.42144031  0.92768599     0.10100
H759        H  0.30633323  0.35683238  0.91717703     0.11100
H760        H  0.37571920  0.33839456  0.03439945     0.17000
C761        C  0.47961056  0.69660357  0.77454455    -0.01300
C762        C  0.46875106  0.72307827  0.75674932     0.07300
C763        C  0.46469442  0.74818355  0.78181258    -0.07200
C764        C  0.47094612  0.74695515  0.82440710     0.04800
C765        C  0.48115458  0.72029957  0.84223467    -0.14500
C766        C  0.48548105  0.69533703  0.81711342    -0.07800
C767        C  0.46174552  0.72476399  0.71192738     0.05700
C768        C  0.43427735  0.71409733  0.69772872    -0.08900
C769        C  0.42795855  0.71284399  0.65516443     0.00700
C770        C  0.44937294  0.72249174  0.62620924     0.00600
C771        C  0.47664756  0.73354844  0.64062511    -0.12500
C772        C  0.48293005  0.73483816  0.68310856     0.01000
C773        C  0.40028525  0.69978999  0.64192067     0.40400
C774        C  0.51158852  0.74560672  0.69647196     0.37000
C775        C  0.48520138  0.67063397  0.74957630     0.36700
C776        C  0.46595884  0.77287763  0.84964168     0.37500
N777        N  0.37808147  0.68927394  0.63136730    -0.43300
N778        N  0.53455120  0.75420099  0.70728894    -0.43800
N779        N  0.46194544  0.79365698  0.86993256    -0.41100
N780        N  0.48984228  0.64987621  0.72950979    -0.42600
H781        H  0.49349251  0.67489459  0.83096026     0.13600
H782        H  0.45648482  0.76860451  0.76812383     0.10100
H783        H  0.41813448  0.70593867  0.71992167     0.11100
H784        H  0.49324549  0.74068008  0.61841598     0.17000
C785        C  0.48681769  0.69307258  0.19631799    -0.01300
C786        C  0.47750644  0.72140872  0.20960212     0.07300
C787        C  0.47649561  0.74481402  0.18086382    -0.07200
C788        C  0.48460324  0.74016484  0.13926623     0.04800
C789        C  0.49389386  0.71179160  0.12610877    -0.14500
C790        C  0.49473677  0.68846877  0.15485643    -0.07800
C791        C  0.46909530  0.72647975  0.25360022     0.05700
C792        C  0.49174811  0.72904781  0.28322942    -0.08900
C793        C  0.48523331  0.72853027  0.32568101     0.00700
C794        C  0.45556173  0.72477869  0.33920874     0.00600
C795        C  0.43268759  0.72438011  0.30946768    -0.12500
C796        C  0.43924476  0.72528121  0.26688718     0.01000
C797        C  0.50941581  0.73184250  0.35478115     0.40400
C798        C  0.41516201  0.72360411  0.23736631     0.37000
C799        C  0.48789644  0.66827670  0.22467215     0.36700
C800        C  0.48182675  0.76427542  0.11007941     0.37500
N801        N  0.52885873  0.73455975  0.37801938    -0.43300
N802        N  0.39583139  0.72240713  0.21369961    -0.43800
N803        N  0.47951693  0.78351924  0.08650453    -0.41100
N804        N  0.48872152  0.64847753  0.24751540    -0.42600
H805        H  0.50142961  0.66655026  0.14463536     0.13600
H806        H  0.46914987  0.76657800  0.19086352     0.10100
H807        H  0.51469410  0.73047332  0.27311125     0.11100
H808        H  0.40983427  0.72182641  0.31945323     0.17000
C809        C  0.35484998  0.60605726  0.94999053    -0.01300
C810        C  0.37685420  0.60254471  0.98081452     0.07300
C811        C  0.37220835  0.58235069  0.01323445    -0.07200
C812        C  0.34613474  0.56544222  0.01499152     0.04800
C813        C  0.32436185  0.56844943  0.98369406    -0.14500
C814        C  0.32879810  0.58908685  0.95169532    -0.07800
C815        C  0.40490086  0.61974760  0.97977459     0.05700
C816        C  0.40501246  0.64888255  0.99451452    -0.08900
C817        C  0.43106508  0.66587633  0.99392178     0.00700
C818        C  0.45830306  0.65340832  0.97957017     0.00600
C819        C  0.45708903  0.62484623  0.96182303    -0.12500
C820        C  0.43106693  0.60782326  0.96280631     0.01000
C821        C  0.42860134  0.69656788  0.00631871     0.40400
C822        C  0.43146735  0.57839302  0.94515302     0.37000
C823        C  0.35883874  0.62657176  0.91605838     0.36700
C824        C  0.34157612  0.54604880  0.05001347     0.37500
N825        N  0.42658324  0.72116746  0.01616303    -0.43300
N826        N  0.43175877  0.55478375  0.93111136    -0.43800
N827        N  0.33781701  0.53060917  0.07821036    -0.41100
N828        N  0.36210833  0.64302331  0.88888001    -0.42600
H829        H  0.31208906  0.59147447  0.92764301     0.13600
H830        H  0.38893152  0.57994124  0.03728802     0.10100
H831        H  0.38450797  0.65851026  0.00603975     0.11100
H832        H  0.47559076  0.61604769  0.94485260     0.17000
C833        C  0.60026593  0.56514896  0.99594106    -0.01300
C834        C  0.61591676  0.55609654  0.96021130     0.07300
C835        C  0.61294614  0.57253231  0.92341159    -0.07200
C836        C  0.59474731  0.59786089  0.92208081     0.04800
C837        C  0.57896354  0.60664194  0.95772823    -0.14500
C838        C  0.58185213  0.59014227  0.99434509    -0.07800
C839        C  0.63557858  0.52964002  0.96137089     0.05700
C840        C  0.62702617  0.50365589  0.94085578    -0.08900
C841        C  0.64344113  0.47733993  0.94559697     0.00700
C842        C  0.66793922  0.47626531  0.97357639     0.00600
C843        C  0.67847519  0.50356785  0.98902705    -0.12500
C844        C  0.66234134  0.52983455  0.98389663     0.01000
C845        C  0.63546333  0.45253028  0.91958905     0.40400
C846        C  0.67382848  0.55688167  0.00166882     0.37000
C847        C  0.60250447  0.54886250  0.03442107     0.36700
C848        C  0.59186659  0.61411892  0.88374148     0.37500
N849        N  0.62903738  0.43278266  0.89850693    -0.43300
N850        N  0.68301774  0.57858060  0.01584520    -0.43800
N851        N  0.58955524  0.62715889  0.85296446    -0.41100
N852        N  0.60447123  0.53581559  0.06523491    -0.42600
H853        H  0.56959054  0.59690597  0.02168874     0.13600
H854        H  0.62494014  0.56564597  0.89589433     0.10100
H855        H  0.60736854  0.50390101  0.92131965     0.11100
H856        H  0.69979477  0.50490646  0.00438269     0.17000
C857        C  0.29301545  0.11754391  0.01922382    -0.01300
C858        C  0.29567845  0.14365617  0.99549427     0.07300
C859        C  0.27133456  0.15350407  0.97200824    -0.07200
C860        C  0.24438104  0.13796955  0.97224404     0.04800
C861        C  0.24145445  0.11189114  0.99640230    -0.14500
C862        C  0.26614610  0.10179718  0.01927542    -0.07800
C863        C  0.32345072  0.16142241  0.99525156     0.05700
C864        C  0.34890867  0.15013625  0.97585574    -0.08900
C865        C  0.37517832  0.16682594  0.97381098     0.00700
C866        C  0.37570594  0.19635167  0.98932382     0.00600
C867        C  0.35102158  0.20591938  0.01270813    -0.12500
C868        C  0.32493435  0.18918557  0.01494248     0.01000
C869        C  0.40149422  0.15174949  0.95926029     0.40400
C870        C  0.30013690  0.20067728  0.03837996     0.37000
C871        C  0.31716809  0.10728666  0.04509983     0.36700
C872        C  0.22050047  0.14893475  0.94643538     0.37500
N873        N  0.42246352  0.13930799  0.94779238    -0.43300
N874        N  0.28027727  0.20985955  0.05722310    -0.43800
N875        N  0.20145931  0.15788493  0.92569248    -0.41100
N876        N  0.33655910  0.09927289  0.06594736    -0.42600
H877        H  0.26419378  0.08205576  0.03829947     0.13600
H878        H  0.27343382  0.17348150  0.95346341     0.10100
H879        H  0.34834729  0.12797656  0.96280036     0.11100
H880        H  0.35200587  0.22670246  0.02945394     0.17000
C881        C  0.74255993  0.31581874  0.01822263    -0.01300
C882        C  0.77150406  0.31531966  0.00159980     0.07300
C883        C  0.78409411  0.34208584  0.98819199    -0.07200
C884        C  0.76770230  0.36860850  0.98872784     0.04800
C885        C  0.73720743  0.36848629  0.00018940    -0.14500
C886        C  0.72613784  0.34230493  0.01839799    -0.07800
C887        C  0.78924058  0.28733807  0.99916076     0.05700
C888        C  0.77887028  0.26386532  0.97451302    -0.08900
C889        C  0.79478240  0.23712565  0.97156760     0.00700
C890        C  0.82182202  0.23346053  0.99359806     0.00600
C891        C  0.83238462  0.25723562  0.01763598    -0.12500
C892        C  0.81632183  0.28384410  0.02077856     0.01000
C893        C  0.78323131  0.21430507  0.94463964     0.40400
C894        C  0.82742487  0.30681858  0.04779011     0.37000
C895        C  0.72956101  0.28960892  0.03645008     0.36700
C896        C  0.78315247  0.39566448  0.97842430     0.37500
N897        N  0.77387099  0.19606682  0.92304683    -0.43300
N898        N  0.83617150  0.32528806  0.06948017    -0.43800
N899        N  0.79560654  0.41730539  0.97013963    -0.41100
N900        N  0.71914638  0.26860386  0.05104306    -0.42600
H901        H  0.70518265  0.34245424  0.03449730     0.13600
H902        H  0.80689638  0.34227159  0.97729299     0.10100
H903        H  0.75827725  0.26653073  0.95733072     0.11100
H904        H  0.85285000  0.25476115  0.03512392     0.17000
C905        C  0.15240667  0.58682873  0.96356801    -0.01300
C906        C  0.16003925  0.61070036  0.98940249     0.07300
C907        C  0.18458668  0.60798308  0.01584683    -0.07200
C908        C  0.20239672  0.58243697  0.01550152     0.04800
C909        C  0.19663229  0.55929536  0.98661963    -0.14500
C910        C  0.17017255  0.56128950  0.96312193    -0.07800
C911        C  0.14246775  0.63856933  0.99001533     0.05700
C912        C  0.11580072  0.63962025  0.01235802    -0.08900
C913        C  0.09962430  0.66614609  0.01582556     0.00700
C914        C  0.10992165  0.69222001  0.99588818     0.00600
C915        C  0.13652376  0.69080329  0.97307619    -0.12500
C916        C  0.15282174  0.66438329  0.97021824     0.01000
C917        C  0.07384289  0.66619641  0.04242166     0.40400
C918        C  0.18028875  0.66424640  0.94709841     0.37000
C919        C  0.12656063  0.58812113  0.93698644     0.36700
C920        C  0.22542867  0.58031352  0.04663243     0.37500
N921        N  0.05332363  0.66601366  0.06404248    -0.43300
N922        N  0.20236672  0.66404317  0.92871787    -0.43800
N923        N  0.24369656  0.57868200  0.07186761    -0.41100
N924        N  0.10592675  0.58910697  0.91553246    -0.42600
H925        H  0.16239955  0.54263298  0.94528527     0.13600
H926        H  0.18965565  0.62586043  0.03720338     0.10100
H927        H  0.10809368  0.61982930  0.02816356     0.11100
H928        H  0.14474750  0.71045978  0.95750148     0.17000
C929        C  0.58773586  0.77639288  0.95999036    -0.01300
C930        C  0.61383916  0.76728265  0.98059785     0.07300
C931        C  0.61344635  0.74065189  0.00303239    -0.07200
C932        C  0.58807759  0.72258835  0.00384323     0.04800
C933        C  0.56248978  0.73022172  0.98007390    -0.14500
C934        C  0.56242847  0.75820055  0.96032644    -0.07800
C935        C  0.64146607  0.78560770  0.98075270     0.05700
C936        C  0.64147082  0.81320238  0.00083391    -0.08900
C937        C  0.66759285  0.83008781  0.00420193     0.00700
C938        C  0.69468529  0.81917885  0.98765499     0.00600
C939        C  0.69435303  0.79181004  0.96673255    -0.12500
C940        C  0.66811612  0.77524590  0.96283128     0.01000
C941        C  0.66593889  0.85775110  0.02654538     0.40400
C942        C  0.66888077  0.74797915  0.93941571     0.37000
C943        C  0.58647166  0.80420103  0.93781055     0.36700
C944        C  0.58881823  0.69691690  0.03068253     0.37500
N945        N  0.66426233  0.87994882  0.04439599    -0.43300
N946        N  0.66941531  0.72624898  0.92036019    -0.43800
N947        N  0.58948916  0.67641623  0.05230552    -0.41100
N948        N  0.58542120  0.82649928  0.92005664    -0.42600
H949        H  0.54246877  0.76665145  0.94592231     0.13600
H950        H  0.63300854  0.73416802  0.02059512     0.10100
H951        H  0.62106702  0.82128298  0.01476278     0.11100
H952        H  0.71468202  0.78334816  0.95306771     0.17000
loop_ 
_geom_bond_atom_site_label_1 
_geom_bond_atom_site_label_2 
_geom_bond_distance 
_geom_bond_site_symmetry_2 
_ccdc_geom_bond_type 
N1            N2   1.320       .  A
N1            C5   1.354       .  A
N1           Cu9   2.092       .  S
N2            C3   1.337       .  A
N2           Cu8   2.052       .  S
C3            C4   1.379       .  A
C3            H6   1.081       .  S
C4            C5   1.392       .  A
C4           C62   1.477   1_565  S
C5            H7   1.082       .  S
Cu8          N11   2.052       .  S
Cu9          N19   2.096       .  S
Cu10         N12   2.098       .  S
Cu10         N18   2.102       .  S
N11          N12   1.319       .  A
N11          C15   1.339       .  A
N12          C13   1.354       .  A
C13          C14   1.393       .  A
C13          H16   1.082       .  S
C14          C15   1.381       .  A
C14          C28   1.480       .  S
C15          H17   1.082       .  S
N18          N19   1.327       .  A
N18          C22   1.347   1_554  A
N19          C20   1.348   1_554  A
C20          C21   1.388       .  A
C20          H23   1.081       .  S
C21          C22   1.388       .  A
C21         C938   1.495       .  S
C22          H24   1.082   1_556  S
N25          N26   1.319       .  A
N25          C29   1.353       .  A
N25         Cu33   2.086   1_655  S
N26          C27   1.340       .  A
N26         Cu32   2.064   1_655  S
C27          C28   1.383       .  A
C27          H30   1.081       .  S
C28          C29   1.391       .  A
C29          H31   1.082       .  S
Cu32         N35   2.063       .  S
Cu33         N43   2.090       .  S
Cu34         N36   2.094       .  S
Cu34         N42   2.097       .  S
N35          N36   1.320       .  A
N35          C39   1.337       .  A
N36          C37   1.356       .  A
C37          C38   1.393       .  A
C37          H40   1.082       .  S
C38          C39   1.382       .  A
C38          C76   1.483       .  S
C39          H41   1.081       .  S
N42          N43   1.327       .  A
N42          C46   1.346       .  A
N43          C44   1.346       .  A
C44          C45   1.386   1_554  A
C44          H47   1.081       .  S
C45          C46   1.387   1_556  A
C45         C914   1.491       .  S
C46          H48   1.082       .  S
N49          N50   1.320       .  A
N49          C53   1.355       .  A
N49         Cu57   2.098       .  S
N50          C51   1.336       .  A
N50         Cu56   2.052       .  S
C51          C52   1.380       .  A
C51          H54   1.081       .  S
C52          C53   1.394       .  A
C52          C86   1.479   1_655  S
C53          H55   1.082       .  S
Cu56         N59   2.054       .  S
Cu57         N67   2.103       .  S
Cu58         N60   2.084       .  S
Cu58         N66   2.088   1_554  S
N59          N60   1.319       .  A
N59          C63   1.338       .  A
N60          C61   1.353       .  A
C61          C62   1.390       .  A
C61          H64   1.082       .  S
C62          C63   1.382       .  A
C63          H65   1.081       .  S
N66          N67   1.327   1_556  A
N66          C70   1.345       .  A
N67          C68   1.348   1_554  A
C68          C69   1.389       .  A
C68          H71   1.082       .  S
C69          C70   1.385       .  A
C69         C890   1.492       .  S
C70          H72   1.081       .  S
N73          N74   1.320       .  A
N73          C77   1.357       .  A
N73         Cu81   2.102   1_565  S
N74          C75   1.336       .  A
N74         Cu80   2.055   1_565  S
C75          C76   1.380       .  A
C75          H78   1.081       .  S
C76          C77   1.395       .  A
C77          H79   1.082       .  S
Cu80         N83   2.055       .  S
Cu81         N91   2.106       .  S
Cu82         N84   2.084       .  S
Cu82         N90   2.088       .  S
N83          N84   1.318       .  A
N83          C87   1.337       .  A
N84          C85   1.354       .  A
C85          C86   1.392       .  A
C85          H88   1.082       .  S
C86          C87   1.382       .  A
C87          H89   1.081       .  S
N90          N91   1.328       .  A
N90          C94   1.344       .  A
N91          C92   1.349       .  A
C92          C93   1.387   1_554  A
C92          H95   1.082       .  S
C93          C94   1.383   1_556  A
C93         C861   1.488       .  S
C94          H96   1.081       .  S
C97          C99   1.527   1_556  S
C97         C101   1.537       .  S
C97         C100   1.551       .  S
C97         C818   1.544       .  S
C98         C102   1.544   1_556  S
C98         C104   1.550       .  S
C98         C103   1.545       .  S
C98         C933   1.546       .  S
C99         C107   1.375       .  A
C99         C102   1.387       .  A
C100        C111   1.383       .  A
C100        C103   1.401       .  A
C101        C115   1.376       .  A
C101        C104   1.411       .  A
C102        C105   1.385       .  A
C103        C109   1.381       .  A
C104        C112   1.391       .  A
C105        N106   1.361       .  A
C105        H118   1.082       .  S
N106        C107   1.354       .  A
N106        C789   1.438       .  S
C107        H108   1.082       .  S
C109        N110   1.354       .  A
C109        H119   1.082       .  S
N110        C111   1.354       .  A
N110        C837   1.435       .  S
C111        H117   1.080       .  S
C112        N113   1.352       .  A
C112        H114   1.082       .  S
N113        C115   1.346       .  A
N113        C765   1.433       .  S
C115        H116   1.083       .  S
C120        C122   1.547       .  S
C120        C124   1.545   1_556  S
C120        C123   1.546       .  S
C120        C909   1.541       .  S
C121        C125   1.528       .  S
C121        C127   1.535   1_556  S
C121        C126   1.540       .  S
C121        C741   1.538       .  S
C122        C130   1.386       .  A
C122        C125   1.396       .  A
C123        C134   1.381       .  A
C123        C126   1.396       .  A
C124        C138   1.384       .  A
C124        C127   1.399       .  A
C125        C128   1.372       .  A
C126        C132   1.378       .  A
C127        C135   1.376       .  A
C128        N129   1.349       .  A
C128        H141   1.082       .  S
N129        C130   1.355       .  A
N129        C693   1.430       .  S
C130        H131   1.081       .  S
C132        N133   1.357       .  A
C132        H142   1.082       .  S
N133        C134   1.357       .  A
N133        C813   1.439       .  S
C134        H140   1.082       .  S
C135        N136   1.350       .  A
C135        H137   1.082       .  S
N136        C138   1.356       .  A
N136        C722   1.435       .  S
C138        H139   1.082       .  S
C143        C145   1.542   1_556  S
C143        C147   1.517       .  S
C143        C146   1.545       .  S
C143        C842   1.543       .  S
C144        C148   1.548   1_556  S
C144        C150   1.544       .  S
C144        C149   1.548       .  S
C144        C885   1.545   1_556  S
C145        C153   1.374       .  A
C145        C148   1.407       .  A
C146        C157   1.379       .  A
C146        C149   1.400       .  A
C147        C161   1.366       .  A
C147        C150   1.385       .  A
C148        C151   1.391       .  A
C149        C155   1.380       .  A
C150        C158   1.386       .  A
C151        N152   1.362       .  A
C151        H164   1.081       .  S
N152        C153   1.353       .  A
N152        C645   1.457       .  S
C153        H154   1.077       .  S
C155        N156   1.355       .  A
C155        H165   1.080       .  S
N156        C157   1.356       .  A
N156        C669   1.440       .  S
C157        H163   1.081       .  S
C158        N159   1.360       .  A
C158        H160   1.082       .  S
N159        C161   1.352       .  A
N159        C626   1.435       .  S
C161        H162   1.083       .  S
C166        C168   1.545       .  S
C166        C170   1.538   1_556  S
C166        C169   1.545       .  S
C166        C866   1.537       .  S
C167        C171   1.534       .  S
C167        C173   1.528   1_556  S
C167        C172   1.547       .  S
C167        C674   1.536       .  S
C168        C176   1.389       .  A
C168        C171   1.410       .  A
C169        C180   1.381       .  A
C169        C172   1.398       .  A
C170        C184   1.382       .  A
C170        C173   1.386       .  A
C171        C174   1.376       .  A
C172        C178   1.380       .  A
C173        C181   1.374       .  A
C174        N175   1.348       .  A
C174        H187   1.083       .  S
N175        C176   1.352       .  A
N175        C578   1.435       .  S
C176        H177   1.083       .  S
C178        N179   1.353       .  A
C178        H188   1.081       .  S
N179        C180   1.355       .  A
N179        C746   1.434       .  S
C180        H186   1.082       .  S
C181        N182   1.355       .  A
C181        H183   1.082       .  S
N182        C184   1.361       .  A
N182        C597   1.439       .  S
C184        H185   1.082       .  S
N189        N190   1.320       .  A
N189        C193   1.351       .  A
N189       Cu197   2.085       .  S
N190        C191   1.340       .  A
N190       Cu196   2.057       .  S
C191        C192   1.379       .  A
C191        H194   1.082       .  S
C192        C193   1.387       .  A
C192        C250   1.469   1_655  S
C193        H195   1.082       .  S
Cu196       N199   2.056       .  S
Cu197       N207   2.088       .  S
Cu198       N200   2.094       .  S
Cu198       N206   2.098       .  S
N199        N200   1.320       .  A
N199        C203   1.337       .  A
N200        C201   1.355       .  A
C201        C202   1.392       .  A
C201        H204   1.082       .  S
C202        C203   1.381       .  A
C202        C216   1.479       .  S
C203        H205   1.081       .  S
N206        N207   1.325       .  A
N206        C210   1.348       .  A
N207        C208   1.345       .  A
C208        C209   1.387       .  A
C208        H211   1.081       .  S
C209        C210   1.389       .  A
C209        C549   1.495       .  S
C210        H212   1.082       .  S
N213        N214   1.320       .  A
N213        C217   1.356       .  A
N213       Cu221   2.101   1_565  S
N214        C215   1.336       .  A
N214       Cu220   2.047   1_565  S
C215        C216   1.379       .  A
C215        H218   1.081       .  S
C216        C217   1.394       .  A
C217        H219   1.082       .  S
Cu220       N223   2.048       .  S
Cu221       N231   2.105       .  S
Cu222       N224   2.089       .  S
Cu222       N230   2.093       .  S
N223        N224   1.319       .  A
N223        C227   1.338       .  A
N224        C225   1.353       .  A
C225        C226   1.390       .  A
C225        H228   1.082       .  S
C226        C227   1.378       .  A
C226        C264   1.472       .  S
C227        H229   1.082       .  S
N230        N231   1.327       .  A
N230        C234   1.345       .  A
N231        C232   1.349       .  A
C232        C233   1.388       .  A
C232        H235   1.082       .  S
C233        C234   1.386       .  A
C233        C525   1.493       .  S
C234        H236   1.081       .  S
N237        N238   1.322       .  A
N237        C241   1.357       .  A
N237       Cu245   2.111       .  S
N238        C239   1.338       .  A
N238       Cu244   2.059       .  S
C239        C240   1.380       .  A
C239        H242   1.081       .  S
C240        C241   1.395       .  A
C240        C274   1.484   1_565  S
C241        H243   1.082       .  S
Cu244       N247   2.059       .  S
Cu245       N255   2.114       .  S
Cu246       N248   2.076       .  S
Cu246       N254   2.079       .  S
N247        N248   1.319       .  A
N247        C251   1.341       .  A
N248        C249   1.349       .  A
C249        C250   1.387       .  A
C249        H252   1.082       .  S
C250        C251   1.381       .  A
C251        H253   1.082       .  S
N254        N255   1.326       .  A
N254        C258   1.344       .  A
N255        C256   1.351       .  A
C256        C257   1.391       .  A
C256        H259   1.082       .  S
C257        C258   1.382       .  A
C257        C501   1.491       .  S
C258        H260   1.082       .  S
N261        N262   1.320       .  A
N261        C265   1.352       .  A
N261       Cu269   2.084   1_655  S
N262        C263   1.340       .  A
N262       Cu268   2.063   1_655  S
C263        C264   1.381       .  A
C263        H266   1.082       .  S
C264        C265   1.388       .  A
C265        H267   1.082       .  S
Cu268       N271   2.063       .  S
Cu269       N279   2.087       .  S
Cu270       N272   2.104       .  S
Cu270       N278   2.107       .  S
N271        N272   1.321       .  A
N271        C275   1.339       .  A
N272        C273   1.356       .  A
C273        C274   1.393       .  A
C273        H276   1.082       .  S
C274        C275   1.382       .  A
C275        H277   1.081       .  S
N278        N279   1.325       .  A
N278        C282   1.350       .  A
N279        C280   1.345       .  A
C280        C281   1.388       .  A
C280        H283   1.080       .  S
C281        C282   1.392       .  A
C281        C477   1.499       .  S
C282        H284   1.082       .  S
C285        C287   1.536       .  S
C285        C289   1.527       .  S
C285        C288   1.537       .  S
C285        C429   1.541       .  S
C286        C290   1.549       .  S
C286        C292   1.553       .  S
C286        C291   1.542       .  S
C286        C554   1.547       .  S
C287        C295   1.374       .  A
C287        C290   1.404       .  A
C288        C299   1.378       .  A
C288        C291   1.393       .  A
C289        C303   1.370       .  A
C289        C292   1.398       .  A
C290        C293   1.388       .  A
C291        C297   1.378       .  A
C292        C300   1.390       .  A
C293        N294   1.358       .  A
C293        H306   1.080       .  S
N294        C295   1.351       .  A
N294        C650   1.441       .  S
C295        H296   1.081       .  S
C297        N298   1.356       .  A
C297        H307   1.082       .  S
N298        C299   1.354       .  A
N298        C453   1.433       .  S
C299        H305   1.082       .  S
C300        N301   1.358       .  A
C300        H302   1.082       .  S
N301        C303   1.351       .  A
N301        C621   1.437       .  S
C303        H304   1.082       .  S
C308        C310   1.543       .  S
C308        C312   1.530       .  S
C308        C311   1.541       .  S
C308        C410   1.543       .  S
C309        C313   1.543       .  S
C309        C315   1.541       .  S
C309        C314   1.547       .  S
C309        C530   1.543       .  S
C310        C318   1.381       .  A
C310        C313   1.412       .  A
C311        C322   1.380       .  A
C311        C314   1.397       .  A
C312        C326   1.370       .  A
C312        C315   1.390       .  A
C313        C316   1.384       .  A
C314        C320   1.382       .  A
C315        C323   1.385       .  A
C316        N317   1.352       .  A
C316        H329   1.082       .  S
N317        C318   1.348       .  A
N317        C602   1.431       .  S
C318        H319   1.082       .  S
C320        N321   1.355       .  A
C320        H330   1.082       .  S
N321        C322   1.354       .  A
N321        C434   1.437       .  S
C322        H328   1.082       .  S
C323        N324   1.360       .  A
C323        H325   1.082       .  S
N324        C326   1.352       .  A
N324        C573   1.436       .  S
C326        H327   1.083       .  S
C331        C333   1.542       .  S
C331        C335   1.535       .  S
C331        C334   1.542       .  S
C331        C458   1.540       .  S
C332        C336   1.546       .  S
C332        C338   1.553       .  S
C332        C337   1.540       .  S
C332        C506   1.542       .  S
C333        C341   1.380       .  A
C333        C336   1.395       .  A
C334        C345   1.380       .  A
C334        C337   1.391       .  A
C335        C349   1.374       .  A
C335        C338   1.403       .  A
C336        C339   1.385       .  A
C337        C343   1.380       .  A
C338        C346   1.392       .  A
C339        N340   1.360       .  A
C339        H352   1.082       .  S
N340        C341   1.356       .  A
N340        C794   1.445       .  S
C341        H342   1.081       .  S
C343        N344   1.358       .  A
C343        H353   1.082       .  S
N344        C345   1.357       .  A
N344        C381   1.441       .  S
C345        H351   1.082       .  S
C346        N347   1.357       .  A
C346        H348   1.081       .  S
N347        C349   1.349       .  A
N347        C770   1.438       .  S
C349        H350   1.082       .  S
C354        C356   1.550       .  S
C354        C358   1.544       .  S
C354        C357   1.538       .  S
C354        C482   1.547       .  S
C355        C359   1.530       .  S
C355        C361   1.539       .  S
C355        C360   1.544       .  S
C355        C386   1.544       .  S
C356        C364   1.387       .  A
C356        C359   1.402       .  A
C357        C368   1.377       .  A
C357        C360   1.394       .  A
C358        C372   1.382       .  A
C358        C361   1.399       .  A
C359        C362   1.372       .  A
C360        C366   1.380       .  A
C361        C369   1.377       .  A
C362        N363   1.348       .  A
C362        H375   1.082       .  S
N363        C364   1.353       .  A
N363        C698   1.429       .  S
C364        H365   1.082       .  S
C366        N367   1.357       .  A
C366        H376   1.082       .  S
N367        C368   1.357       .  A
N367        C405   1.438       .  S
C368        H374   1.082       .  S
C369        N370   1.353       .  A
C369        H371   1.081       .  S
N370        C372   1.356       .  A
N370        C717   1.433       .  S
C372        H373   1.082       .  S
C377        C378   1.409       .  A
C377        C382   1.401       .  A
C377        C391   1.444       .  S
C378        C379   1.402       .  A
C378        C383   1.484       .  S
C379        C380   1.403       .  A
C379        H398   1.085       .  S
C380        C381   1.413       .  A
C380        C392   1.442       .  S
C381        C382   1.404       .  A
C382        H397   1.084       .  S
C383        C384   1.398       .  A
C383        C388   1.405       .  A
C384        C385   1.403       .  A
C384        H399   1.085       .  S
C385        C386   1.426       .  A
C385        C389   1.444       .  S
C386        C387   1.411       .  A
C387        C388   1.401       .  A
C387        H400   1.078       .  S
C388        C390   1.444       .  S
C389        N393   1.158       .  T
C390        N394   1.157       .  T
C391        N396   1.157       .  T
C392        N395   1.157       .  T
C401        C402   1.409       .  A
C401        C406   1.400       .  A
C401        C415   1.443       .  S
C402        C403   1.401       .  A
C402        C407   1.480       .  S
C403        C404   1.400       .  A
C403        H422   1.085       .  S
C404        C405   1.412       .  A
C404        C416   1.443       .  S
C405        C406   1.404       .  A
C406        H421   1.084       .  S
C407        C408   1.397       .  A
C407        C412   1.404       .  A
C408        C409   1.400       .  A
C408        H423   1.085       .  S
C409        C410   1.426       .  A
C409        C413   1.445       .  S
C410        C411   1.412       .  A
C411        C412   1.400       .  A
C411        H424   1.078       .  S
C412        C414   1.444       .  S
C413        N417   1.158       .  T
C414        N418   1.157       .  T
C415        N420   1.157       .  T
C416        N419   1.157       .  T
C425        C426   1.406       .  A
C425        C430   1.398       .  A
C425        C439   1.444       .  S
C426        C427   1.399       .  A
C426        C431   1.483       .  S
C427        C428   1.402       .  A
C427        H446   1.085       .  S
C428        C429   1.424       .  A
C428        C440   1.445       .  S
C429        C430   1.409       .  A
C430        H445   1.079       .  S
C431        C432   1.402       .  A
C431        C436   1.411       .  A
C432        C433   1.401       .  A
C432        H447   1.085       .  S
C433        C434   1.413       .  A
C433        C437   1.443       .  S
C434        C435   1.401       .  A
C435        C436   1.400       .  A
C435        H448   1.084       .  S
C436        C438   1.444       .  S
C437        N441   1.157       .  T
C438        N442   1.157       .  T
C439        N444   1.157       .  T
C440        N443   1.158       .  T
C449        C450   1.411       .  A
C449        C454   1.400       .  A
C449        C463   1.444       .  S
C450        C451   1.403       .  A
C450        C455   1.481       .  S
C451        C452   1.399       .  A
C451        H470   1.085       .  S
C452        C453   1.407       .  A
C452        C464   1.442       .  S
C453        C454   1.401       .  A
C454        H469   1.084       .  S
C455        C456   1.398       .  A
C455        C460   1.406       .  A
C456        C457   1.400       .  A
C456        H471   1.085       .  S
C457        C458   1.426       .  A
C457        C461   1.445       .  S
C458        C459   1.410       .  A
C459        C460   1.399       .  A
C459        H472   1.077       .  S
C460        C462   1.445       .  S
C461        N465   1.158       .  T
C462        N466   1.157       .  T
C463        N468   1.157       .  T
C464        N467   1.157       .  T
C473        C474   1.409       .  A
C473        C478   1.405       .  A
C473        C487   1.444       .  S
C474        C475   1.401       .  A
C474        C479   1.491       .  S
C475        C476   1.404       .  A
C475        H494   1.085       .  S
C476        C477   1.420       .  A
C476        C488   1.443       .  S
C477        C478   1.409       .  A
C478        H493   1.084       .  S
C479        C480   1.401       .  A
C479        C484   1.407       .  A
C480        C481   1.406       .  A
C480        H495   1.087       .  S
C481        C482   1.425       .  A
C481        C485   1.444       .  S
C482        C483   1.410       .  A
C483        C484   1.401       .  A
C483        H496   1.082       .  S
C484        C486   1.444       .  S
C485        N489   1.157       .  T
C486        N490   1.157       .  T
C487        N492   1.157       .  T
C488        N491   1.157       .  T
C497        C498   1.409       .  A
C497        C502   1.402       .  A
C497        C511   1.444       .  S
C498        C499   1.402       .  A
C498        C503   1.487       .  S
C499        C500   1.405       .  A
C499        H518   1.085       .  S
C500        C501   1.414       .  A
C500        C512   1.443       .  S
C501        C502   1.408       .  A
C502        H517   1.084       .  S
C503        C504   1.399       .  A
C503        C508   1.406       .  A
C504        C505   1.404       .  A
C504        H519   1.085       .  S
C505        C506   1.424       .  A
C505        C509   1.445       .  S
C506        C507   1.410       .  A
C507        C508   1.401       .  A
C507        H520   1.078       .  S
C508        C510   1.444       .  S
C509        N513   1.157       .  T
C510        N514   1.157       .  T
C511        N516   1.157       .  T
C512        N515   1.157       .  T
C521        C522   1.409       .  A
C521        C526   1.405       .  A
C521        C535   1.443       .  S
C522        C523   1.402       .  A
C522        C527   1.489       .  S
C523        C524   1.402       .  A
C523        H542   1.085       .  S
C524        C525   1.417       .  A
C524        C536   1.444       .  S
C525        C526   1.408       .  A
C526        H541   1.084       .  S
C527        C528   1.402       .  A
C527        C532   1.405       .  A
C528        C529   1.407       .  A
C528        H543   1.085       .  S
C529        C530   1.421       .  A
C529        C533   1.443       .  S
C530        C531   1.412       .  A
C531        C532   1.399       .  A
C531        H544   1.080       .  S
C532        C534   1.444       .  S
C533        N537   1.157       .  T
C534        N538   1.157       .  T
C535        N540   1.157       .  T
C536        N539   1.157       .  T
C545        C546   1.412       .  A
C545        C550   1.404       .  A
C545        C559   1.444       .  S
C546        C547   1.403       .  A
C546        C551   1.494       .  S
C547        C548   1.403       .  A
C547        H566   1.085       .  S
C548        C549   1.418       .  A
C548        C560   1.443       .  S
C549        C550   1.407       .  A
C550        H565   1.084       .  S
C551        C552   1.401       .  A
C551        C556   1.409       .  A
C552        C553   1.404       .  A
C552        H567   1.085       .  S
C553        C554   1.425       .  A
C553        C557   1.444       .  S
C554        C555   1.411       .  A
C555        C556   1.402       .  A
C555        H568   1.078       .  S
C556        C558   1.444       .  S
C557        N561   1.158       .  T
C558        N562   1.157       .  T
C559        N564   1.157       .  T
C560        N563   1.157       .  T
C569        C570   1.411       .  A
C569        C574   1.401       .  A
C569        C583   1.444       .  S
C570        C571   1.401       .  A
C570        C575   1.482       .  S
C571        C572   1.400       .  A
C571        H590   1.085       .  S
C572        C573   1.412       .  A
C572        C584   1.443       .  S
C573        C574   1.401       .  A
C574        H589   1.084       .  S
C575        C576   1.403       .  A
C575        C580   1.410       .  A
C576        C577   1.400       .  A
C576        H591   1.085       .  S
C577        C578   1.411       .  A
C577        C581   1.444       .  S
C578        C579   1.402       .  A
C579        C580   1.400       .  A
C579        H592   1.084       .  S
C580        C582   1.443       .  S
C581        N585   1.157       .  T
C582        N586   1.157       .  T
C583        N588   1.157       .  T
C584        N587   1.157       .  T
C593        C594   1.411       .  A
C593        C598   1.399       .  A
C593        C607   1.444       .  S
C594        C595   1.407       .  A
C594        C599   1.489       .  S
C595        C596   1.403       .  A
C595        H614   1.085       .  S
C596        C597   1.410       .  A
C596        C608   1.443       .  S
C597        C598   1.404       .  A
C598        H613   1.084       .  S
C599        C600   1.407       .  A
C599        C604   1.413       .  A
C600        C601   1.400       .  A
C600        H615   1.084       .  S
C601        C602   1.405       .  A
C601        C605   1.443       .  S
C602        C603   1.401       .  A
C603        C604   1.402       .  A
C603        H616   1.084       .  S
C604        C606   1.444       .  S
C605        N609   1.157       .  T
C606        N610   1.157       .  T
C607        N612   1.157       .  T
C608        N611   1.157       .  T
C617        C618   1.411       .  A
C617        C622   1.395       .  A
C617        C631   1.445       .  S
C618        C619   1.404       .  A
C618        C623   1.483       .  S
C619        C620   1.403       .  A
C619        H638   1.084       .  S
C620        C621   1.411       .  A
C620        C632   1.442       .  S
C621        C622   1.402       .  A
C622        H637   1.084       .  S
C623        C624   1.405       .  A
C623        C628   1.409       .  A
C624        C625   1.400       .  A
C624        H639   1.085       .  S
C625        C626   1.409       .  A
C625        C629   1.442       .  S
C626        C627   1.404       .  A
C627        C628   1.397       .  A
C627        H640   1.084       .  S
C628        C630   1.444       .  S
C629        N633   1.157       .  T
C630        N634   1.157       .  T
C631        N636   1.157       .  T
C632        N635   1.157       .  T
C641        C642   1.410       .  A
C641        C646   1.395       .  A
C641        C655   1.447       .  S
C642        C643   1.407       .  A
C642        C647   1.496       .  S
C643        C644   1.407       .  A
C643        H662   1.084       .  S
C644        C645   1.418       .  A
C644        C656   1.442       .  S
C645        C646   1.412       .  A
C646        H661   1.080       .  S
C647        C648   1.405       .  A
C647        C652   1.416       .  A
C648        C649   1.394       .  A
C648        H663   1.085       .  S
C649        C650   1.412       .  A
C649        C653   1.444       .  S
C650        C651   1.404       .  A
C651        C652   1.405       .  A
C651        H664   1.085       .  S
C652        C654   1.443       .  S
C653        N657   1.157       .  T
C654        N658   1.157       .  T
C655        N660   1.157       .  T
C656        N659   1.157       .  T
C665        C666   1.409       .  A
C665        C670   1.398       .  A
C665        C679   1.445       .  S
C666        C667   1.402   1_556  A
C666        C671   1.480       .  S
C667        C668   1.399       .  A
C667        H686   1.085       .  S
C668        C669   1.411   1_554  A
C668        C680   1.442       .  S
C669        C670   1.406       .  A
C670        H685   1.084       .  S
C671        C672   1.400       .  A
C671        C676   1.405       .  A
C672        C673   1.400       .  A
C672        H687   1.085   1_556  S
C673        C674   1.422       .  A
C673        C677   1.445   1_556  S
C674        C675   1.409       .  A
C675        C676   1.397       .  A
C675        H688   1.076       .  S
C676        C678   1.445       .  S
C677        N681   1.157       .  T
C678        N682   1.157       .  T
C679        N684   1.157       .  T
C680        N683   1.157       .  T
C689        C690   1.410       .  A
C689        C694   1.398       .  A
C689        C703   1.444       .  S
C690        C691   1.403       .  A
C690        C695   1.479       .  S
C691        C692   1.398       .  A
C691        H710   1.085       .  S
C692        C693   1.408       .  A
C692        C704   1.443       .  S
C693        C694   1.401       .  A
C694        H709   1.084       .  S
C695        C696   1.402       .  A
C695        C700   1.413       .  A
C696        C697   1.397       .  A
C696        H711   1.085       .  S
C697        C698   1.406       .  A
C697        C701   1.442       .  S
C698        C699   1.399       .  A
C699        C700   1.398       .  A
C699        H712   1.084       .  S
C700        C702   1.444       .  S
C701        N705   1.157       .  T
C702        N706   1.157       .  T
C703        N708   1.157       .  T
C704        N707   1.157       .  T
C713        C714   1.413       .  A
C713        C718   1.401       .  A
C713        C727   1.444       .  S
C714        C715   1.401       .  A
C714        C719   1.482       .  S
C715        C716   1.399       .  A
C715        H734   1.085       .  S
C716        C717   1.409       .  A
C716        C728   1.442       .  S
C717        C718   1.400       .  A
C718        H733   1.084       .  S
C719        C720   1.404       .  A
C719        C724   1.411       .  A
C720        C721   1.402       .  A
C720        H735   1.085       .  S
C721        C722   1.409       .  A
C721        C725   1.442       .  S
C722        C723   1.403       .  A
C723        C724   1.397       .  A
C723        H736   1.084       .  S
C724        C726   1.444       .  S
C725        N729   1.157       .  T
C726        N730   1.157       .  T
C727        N732   1.157       .  T
C728        N731   1.157       .  T
C737        C738   1.403   1_554  A
C737        C742   1.396       .  A
C737        C751   1.445       .  S
C738        C739   1.399       .  A
C738        C743   1.478       .  S
C739        C740   1.402       .  A
C739        H758   1.085       .  S
C740        C741   1.423       .  A
C740        C752   1.444       .  S
C741        C742   1.411   1_556  A
C742        H757   1.079       .  S
C743        C744   1.402       .  A
C743        C748   1.409   1_556  A
C744        C745   1.401       .  A
C744        H759   1.085       .  S
C745        C746   1.410       .  A
C745        C749   1.442       .  S
C746        C747   1.402   1_556  A
C747        C748   1.397       .  A
C747        H760   1.084       .  S
C748        C750   1.444       .  S
C749        N753   1.157       .  T
C750        N754   1.157       .  T
C751        N756   1.157       .  T
C752        N755   1.158       .  T
C761        C762   1.410       .  A
C761        C766   1.398       .  A
C761        C775   1.444       .  S
C762        C763   1.403       .  A
C762        C767   1.480       .  S
C763        C764   1.402       .  A
C763        H782   1.084       .  S
C764        C765   1.407       .  A
C764        C776   1.442       .  S
C765        C766   1.401       .  A
C766        H781   1.084       .  S
C767        C768   1.403       .  A
C767        C772   1.408       .  A
C768        C769   1.402       .  A
C768        H783   1.085       .  S
C769        C770   1.411       .  A
C769        C773   1.442       .  S
C770        C771   1.404       .  A
C771        C772   1.399       .  A
C771        H784   1.084       .  S
C772        C774   1.444       .  S
C773        N777   1.157       .  T
C774        N778   1.157       .  T
C775        N780   1.157       .  T
C776        N779   1.157       .  T
C785        C786   1.411       .  A
C785        C790   1.400       .  A
C785        C799   1.444       .  S
C786        C787   1.404       .  A
C786        C791   1.487       .  S
C787        C788   1.406       .  A
C787        H806   1.084       .  S
C788        C789   1.411       .  A
C788        C800   1.442       .  S
C789        C790   1.401       .  A
C790        H805   1.084       .  S
C791        C792   1.401       .  A
C791        C796   1.411       .  A
C792        C793   1.400       .  A
C792        H807   1.085       .  S
C793        C794   1.415       .  A
C793        C797   1.443       .  S
C794        C795   1.405       .  A
C795        C796   1.405       .  A
C795        H808   1.084       .  S
C796        C798   1.443       .  S
C797        N801   1.157       .  T
C798        N802   1.157       .  T
C799        N804   1.157       .  T
C800        N803   1.157       .  T
C809        C810   1.410       .  A
C809        C814   1.402       .  A
C809        C823   1.444       .  S
C810        C811   1.402   1_556  A
C810        C815   1.483       .  S
C811        C812   1.401       .  A
C811        H830   1.085       .  S
C812        C813   1.411   1_554  A
C812        C824   1.443       .  S
C813        C814   1.403       .  A
C814        H829   1.084       .  S
C815        C816   1.397       .  A
C815        C820   1.405       .  A
C816        C817   1.401       .  A
C816        H831   1.085   1_556  S
C817        C818   1.425       .  A
C817        C821   1.445   1_556  S
C818        C819   1.411       .  A
C819        C820   1.401       .  A
C819        H832   1.072       .  S
C820        C822   1.444       .  S
C821        N825   1.157       .  T
C822        N826   1.157       .  T
C823        N828   1.157       .  T
C824        N827   1.157       .  T
C833        C834   1.411       .  A
C833        C838   1.398       .  A
C833        C847   1.444   1_556  S
C834        C835   1.404       .  A
C834        C839   1.484       .  S
C835        C836   1.404       .  A
C835        H854   1.084       .  S
C836        C837   1.409       .  A
C836        C848   1.442       .  S
C837        C838   1.400       .  A
C838        H853   1.084   1_556  S
C839        C840   1.400       .  A
C839        C844   1.405       .  A
C840        C841   1.404       .  A
C840        H855   1.085       .  S
C841        C842   1.424       .  A
C841        C845   1.444       .  S
C842        C843   1.411       .  A
C843        C844   1.397       .  A
C843        H856   1.080   1_556  S
C844        C846   1.444   1_556  S
C845        N849   1.158       .  T
C846        N850   1.157       .  T
C847        N852   1.157       .  T
C848        N851   1.157       .  T
C857        C858   1.409   1_554  A
C857        C862   1.403       .  A
C857        C871   1.444       .  S
C858        C859   1.401       .  A
C858        C863   1.485       .  S
C859        C860   1.401       .  A
C859        H878   1.085       .  S
C860        C861   1.416       .  A
C860        C872   1.444       .  S
C861        C862   1.407   1_556  A
C862        H877   1.084       .  S
C863        C864   1.401       .  A
C863        C868   1.406   1_556  A
C864        C865   1.404       .  A
C864        H879   1.085       .  S
C865        C866   1.423       .  A
C865        C869   1.443       .  S
C866        C867   1.410   1_556  A
C867        C868   1.398       .  A
C867        H880   1.083       .  S
C868        C870   1.444       .  S
C869        N873   1.158       .  T
C870        N874   1.157       .  T
C871        N876   1.157       .  T
C872        N875   1.157       .  T
C881        C882   1.409       .  A
C881        C886   1.403       .  A
C881        C895   1.444       .  S
C882        C883   1.402   1_554  A
C882        C887   1.493   1_554  S
C883        C884   1.404       .  A
C883        H902   1.085       .  S
C884        C885   1.421   1_556  A
C884        C896   1.444       .  S
C885        C886   1.410       .  A
C886        H901   1.077       .  S
C887        C888   1.404       .  A
C887        C892   1.411   1_556  A
C888        C889   1.404       .  A
C888        H903   1.085       .  S
C889        C890   1.417       .  A
C889        C893   1.444       .  S
C890        C891   1.406   1_556  A
C891        C892   1.403       .  A
C891        H904   1.084       .  S
C892        C894   1.443       .  S
C893        N897   1.158       .  T
C894        N898   1.157       .  T
C895        N900   1.157       .  T
C896        N899   1.157       .  T
C905        C906   1.404       .  A
C905        C910   1.400       .  A
C905        C919   1.444       .  S
C906        C907   1.399   1_556  A
C906        C911   1.483       .  S
C907        C908   1.402       .  A
C907        H926   1.085       .  S
C908        C909   1.423   1_554  A
C908        C920   1.444       .  S
C909        C910   1.412       .  A
C910        H925   1.078       .  S
C911        C912   1.401   1_556  A
C911        C916   1.407       .  A
C912        C913   1.403       .  A
C912        H927   1.085       .  S
C913        C914   1.418   1_554  A
C913        C917   1.443       .  S
C914        C915   1.407       .  A
C915        C916   1.401       .  A
C915        H928   1.084       .  S
C916        C918   1.444       .  S
C917        N921   1.157       .  T
C918        N922   1.157       .  T
C919        N924   1.157       .  T
C920        N923   1.158       .  T
C929        C930   1.408       .  A
C929        C934   1.404       .  A
C929        C943   1.444       .  S
C930        C931   1.401   1_556  A
C930        C935   1.494       .  S
C931        C932   1.403       .  A
C931        H950   1.085       .  S
C932        C933   1.423   1_554  A
C932        C944   1.445       .  S
C933        C934   1.412       .  A
C934        H949   1.079       .  S
C935        C936   1.403   1_556  A
C935        C940   1.410       .  A
C936        C937   1.405       .  A
C936        H951   1.085       .  S
C937        C938   1.418   1_554  A
C937        C941   1.443       .  S
C938        C939   1.407       .  A
C939        C940   1.403       .  A
C939        H952   1.084       .  S
C940        C942   1.444       .  S
C941        N945   1.157       .  T
C942        N946   1.157       .  T
C943        N948   1.157       .  T
C944        N947   1.157       .  T
