geometry optimzed in LAMMPS
_audit_creation_date              2020-12-01 
_audit_creation_method            'lammps2cif' 
_symmetry_space_group_name_H-M    'P1' 
_symmetry_Int_Tables_number       1 
_symmetry_cell_setting            triclinic 
loop_ 
_symmetry_equiv_pos_as_xyz 
  x,y,z 
_cell_length_a                    41.31470048 
_cell_length_b                    40.33516890538699 
_cell_length_c                    67.68387561381508 
_cell_angle_alpha                 90.16387060128342 
_cell_angle_beta                  90.7908364165495 
_cell_angle_gamma                 119.39972340937024 
loop_ 
_atom_site_label 
_atom_site_type_symbol 
_atom_site_fract_x 
_atom_site_fract_y 
_atom_site_fract_z 
_atom_site_charge 
C1          C  0.06766142  0.14756015  0.07289304     0.83200
N2          N  0.09633394  0.17351456  0.08440682    -0.75100
C3          C  0.09183509  0.19959664  0.09513528     0.85700
N4          N  0.05907130  0.19970633  0.09421714    -0.75000
C5          C  0.53070367  0.17394775  0.08273898     0.85800
N6          N  0.03504646  0.14799107  0.07209071    -0.76700
C7          C  0.42092376  0.37461264  0.06394483     0.83200
N8          N  0.42165129  0.34134401  0.06262402    -0.75100
C9          C  0.39843307  0.31117289  0.07372590     0.85700
N10         N  0.37464470  0.31434494  0.08617052    -0.75000
C11         C  0.37378323  0.34745083  0.08753906     0.85800
N12         N  0.39699929  0.37768344  0.07644730    -0.76700
C13         C  0.22906695  0.47905655  0.09025568     0.83200
N14         N  0.20033639  0.47650323  0.07907806    -0.75100
C15         C  0.20470233  0.50668842  0.06824689     0.85700
N16         N  0.23788068  0.03936148  0.06853522    -0.75000
C17         C  0.26661405  0.04205812  0.07971886     0.85800
N18         N  0.26220764  0.51188738  0.09058812    -0.76700
C19         C  0.36541406  0.14162420  0.07858161     0.06200
C20         C  0.39913604  0.14132567  0.07994486    -0.10000
C21         C  0.43287804  0.17547331  0.07895993     0.03700
C22         C  0.43295456  0.21000756  0.07659276    -0.08500
C23         C  0.39931077  0.21047163  0.07523917     0.06200
C24         C  0.36553068  0.17624282  0.07624066    -0.07900
H25         H  0.39912472  0.11461054  0.08175907     0.11700
H26         H  0.45909895  0.23644100  0.07592081     0.09300
H27         H  0.33946246  0.17655835  0.07527087     0.09100
C28         C  0.36107713  0.00315730  0.90474401     0.83200
N29         N  0.32908021  0.46934769  0.90506561    -0.75100
C30         C  0.32726004  0.43988562  0.91549098     0.85700
N31         N  0.35761131  0.44416852  0.92568310    -0.75000
C32         C  0.38983253  0.47790253  0.92540561     0.85800
N33         N  0.39158130  0.00755243  0.91495589    -0.76700
C34         C  0.21810707  0.13144952  0.90236221     0.83200
N35         N  0.19526974  0.10292410  0.91444351    -0.75100
C36         C  0.17232282  0.10796938  0.92674532     0.85700
N37         N  0.17219019  0.14155292  0.92693562    -0.75000
C38         C  0.19501873  0.17007389  0.91485805     0.85800
N39         N  0.21793976  0.16500254  0.90256526    -0.76700
C40         C  0.19464217  0.27099603  0.91416596     0.06200
C41         C  0.16114343  0.27172256  0.91261995    -0.10000
C42         C  0.16140527  0.30658265  0.91212659     0.03700
C43         C  0.19530145  0.34077289  0.91317368    -0.08500
C44         C  0.22885541  0.34005624  0.91468954     0.06200
C45         C  0.22845421  0.30514937  0.91518905    -0.07900
H46         H  0.13496967  0.24525973  0.91183108     0.11700
H47         H  0.19556939  0.36778364  0.91279180     0.09300
H48         H  0.25438149  0.30456158  0.91632149     0.09100
C49         C  0.02822948  0.33596777  0.92096287     0.83200
N50         N  0.06051296  0.33485491  0.92085718    -0.75100
C51         C  0.06339139  0.30829503  0.90988914     0.85700
N52         N  0.03380977  0.28261215  0.89896145    -0.75000
C53         C  0.00134094  0.28346877  0.89903577     0.85800
N54         N  0.99853214  0.31024629  0.91002738    -0.76700
O55         O  0.46576245  0.49738495  0.98111904    -0.77900
O56         O  0.09613518  0.49896928  0.03322267    -0.62600
O57         O  0.03891313  0.01869666  0.99482944    -1.09200
C58         C  0.04106860  0.41962845  0.95854872     1.09000
O59         O  0.13136531  0.49051027  0.01149169    -0.75800
O60         O  0.12079030  0.00883255  0.97454431    -0.63300
Ni61       Ni  0.49744218  0.02395452  0.00355093     1.34900
C62         C  0.10503689  0.02144136  0.96300922     0.87800
O63         O  0.07735226  0.05275832  0.03034208    -0.76300
O64         O  0.02397310  0.05372168  0.02656424    -0.86600
C65         C  0.12457669  0.49639902  0.02898818     0.87300
O66         O  0.47514664  0.47789162  0.01818671    -0.64800
O67         O  0.07325812  0.43259353  0.96635602    -0.84100
C68         C  0.49008745  0.46403175  0.02950657     0.88200
C69         C  0.05573429  0.06552952  0.03468542     1.09700
H70         H  0.04124944  0.44315553  0.00470241     0.41500
O71         O  0.05744734  0.46655675  0.99803198    -1.06700
O72         O  0.07004216  0.00817579  0.96206784    -0.63400
Ni73       Ni  0.02862035  0.47546448  0.97848164     1.26300
O74         O  0.02495459  0.47618619  0.03045342    -0.63600
O75         O  0.01877278  0.43158998  0.96296783    -0.75900
C76         C  0.47167184  0.48956546  0.96381994     0.87500
O77         O  0.49903137  0.48489930  0.95979009    -0.63100
Ni78       Ni  0.09971507  0.46289663  0.98923074     1.27400
Ni79       Ni  0.06721960  0.50921850  0.01452684     1.26100
H80         H  0.05554040  0.04189048  0.98812428     0.42100
C81         C  0.32149311  0.27523645  0.75311924     0.83200
N82         N  0.35444396  0.30815505  0.75324972    -0.75100
C83         C  0.35839020  0.33839366  0.74274370     0.85700
N84         N  0.32931269  0.33587809  0.73207178    -0.75000
C85         C  0.29619954  0.30317561  0.73178224     0.85800
N86         N  0.29209666  0.27262275  0.74237613    -0.76700
C87         C  0.15981883  0.44540877  0.73597706     0.83200
N88         N  0.18771821  0.47078539  0.74795228    -0.75100
C89         C  0.18284024  0.49626089  0.75884997     0.85700
N90         N  0.15005303  0.99629838  0.75780779    -0.75000
C91         C  0.12217177  0.47103186  0.74583072     0.85800
N92         N  0.12703926  0.44557440  0.73490184    -0.76700
C93         C  0.01364762  0.16901029  0.73680382     0.83200
N94         N  0.01342830  0.13534305  0.73781105    -0.75100
C95         C  0.49024053  0.10799066  0.75026737     0.85700
N96         N  0.46700178  0.11421700  0.76172466    -0.75000
C97         C  0.46712795  0.14791781  0.76073349     0.85800
N98         N  0.49043486  0.17533177  0.74823999    -0.76700
C99         C  0.02400170  0.97223704  0.74508798     0.06200
C100        C  0.99035588  0.43793729  0.74386042    -0.10000
C101        C  0.45658324  0.43808426  0.74474548     0.03700
C102        C  0.45642050  0.97256111  0.74682056    -0.08500
C103        C  0.99002603  0.00690911  0.74804402     0.06200
C104        C  0.02383459  0.00674903  0.74715313    -0.07900
H105        H  0.99045465  0.41120781  0.74235652     0.11700
H106        H  0.43025055  0.97265557  0.74749705     0.09300
H107        H  0.04987296  0.03332819  0.74811554     0.09100
O108        O  0.42551691  0.22238372  0.84296018    -0.77900
O109        O  0.29236838  0.09569520  0.79329642    -0.62600
O110        O  0.35052685  0.17490884  0.83056210    -1.09200
C111        C  0.34572026  0.07320883  0.86800064     1.09000
O112        O  0.25486696  0.05759450  0.81628372    -0.75800
O113        O  0.26747950  0.08238398  0.85414149    -0.63300
Ni114      Ni  0.39259122  0.22125853  0.82208711     1.34900
C115        C  0.28344094  0.11264588  0.86446524     0.87800
O116        O  0.31440174  0.16981314  0.79400434    -0.76300
O117        O  0.36424270  0.22668334  0.80074118    -0.86600
C118        C  0.26248919  0.06673016  0.79831532     0.87300
O119        O  0.41279711  0.19854912  0.80504762    -0.64800
O120        O  0.31460819  0.05275353  0.85919005    -0.84100
C121        C  0.39811473  0.16743248  0.79541075     0.88200
C122        C  0.33421525  0.20542367  0.79120263     1.09700
H123        H  0.34577828  0.09571000  0.82278218     0.41500
O124        O  0.32973475  0.10375370  0.82890769    -1.06700
O125        O  0.31800323  0.13623334  0.86384771    -0.63400
Ni126      Ni  0.35901001  0.14238688  0.84799264     1.26300
O127        O  0.36392164  0.14257627  0.79619668    -0.63600
O128        O  0.36685580  0.10844692  0.86468085    -0.75900
C129        C  0.41876666  0.21243678  0.86088193     0.87500
O130        O  0.38943862  0.18283740  0.86592823    -0.63100
Ni131      Ni  0.28693391  0.05831578  0.83753064     1.27400
Ni132      Ni  0.32197115  0.13627494  0.81124364     1.26100
H133        H  0.33395302  0.18215016  0.83676665     0.42100
C134        C  0.16447463  0.15030510  0.58773847     0.83200
N135        N  0.19709366  0.14986457  0.58763805    -0.75100
C136        C  0.20116078  0.12527261  0.57557625     0.85700
N137        N  0.17250364  0.10099181  0.56362552    -0.75000
C138        C  0.13981248  0.10137311  0.56374472     0.85800
N139        N  0.13583465  0.12602836  0.57581478    -0.76700
C140        C  0.02976382  0.28704013  0.59161646     0.83200
N141        N  0.03612128  0.31755512  0.58038184    -0.75100
C142        C  0.00814249  0.31637165  0.56896514     0.85700
N143        N  0.97415060  0.28474159  0.56873087    -0.75000
C144        C  0.46782375  0.25438426  0.57990070     0.85800
N145        N  0.99561804  0.25553701  0.59130558    -0.76700
C146        C  0.36648268  0.45476428  0.56862793     0.83200
N147        N  0.34223896  0.42508145  0.57979606    -0.75100
C148        C  0.31492816  0.42760235  0.58960547     0.85700
N149        N  0.31214782  0.95967955  0.58830671    -0.75000
C150        C  0.33623750  0.98914823  0.57718618     0.85800
N151        N  0.36339520  0.98669241  0.56740429    -0.76700
C152        C  0.29942070  0.12404193  0.57636131     0.06200
C153        C  0.33332460  0.15823482  0.57731921    -0.10000
C154        C  0.36691659  0.15750765  0.57782067     0.03700
C155        C  0.36655581  0.12261958  0.57735894    -0.08500
C156        C  0.33275880  0.08846154  0.57642428     0.06200
C157        C  0.29918860  0.08917171  0.57593137    -0.07900
H158        H  0.33356340  0.18523553  0.57767566     0.11700
H159        H  0.39253466  0.12204899  0.57776739     0.09300
H160        H  0.27300457  0.06271156  0.57525338     0.09100
O161        O  0.07390210  0.22995919  0.67766999    -0.77900
O162        O  0.20894837  0.33115761  0.62511554    -0.62600
O163        O  0.14721953  0.26130057  0.66405091    -1.09200
C164        C  0.17663763  0.37453146  0.69969118     1.09000
O165        O  0.25272805  0.36518026  0.64744032    -0.75800
O166        O  0.24238942  0.34799494  0.68625723    -0.63300
Ni167      Ni  0.09961655  0.21919227  0.65717067     1.34900
C168        C  0.22432051  0.31852122  0.69660706     0.87800
O169        O  0.17396386  0.25515814  0.62724223    -0.76300
O170        O  0.12109129  0.20359676  0.63656835    -0.86600
C171        C  0.24183218  0.35654910  0.62956043     0.87300
O172        O  0.08408230  0.24443323  0.63863993    -0.64800
O173        O  0.20640334  0.39022412  0.68974453    -0.84100
C174        C  0.10152214  0.27425823  0.62847163     0.88200
C175        C  0.15003300  0.21989826  0.62603206     1.09700
H176        H  0.16565421  0.34493095  0.65549406     0.41500
O177        O  0.17941811  0.33369027  0.66135595    -1.06700
O178        O  0.18909971  0.29878844  0.69620905    -0.63400
Ni179      Ni  0.14925810  0.29979016  0.68139529     1.26300
O180        O  0.13660223  0.29562764  0.62937853    -0.63600
O181        O  0.15190282  0.33966004  0.69795425    -0.75900
C182        C  0.08461419  0.23827236  0.69556565     0.87500
O183        O  0.11728544  0.26384501  0.70011057    -0.63100
Ni184      Ni  0.22734446  0.37503876  0.66856348     1.27400
Ni185      Ni  0.17701893  0.29512203  0.64391974     1.26100
H186        H  0.16135291  0.25047209  0.66991377     0.42100
C187        C  0.37134308  0.29409183  0.40699609     0.83200
N188        N  0.40008670  0.31814443  0.41889605    -0.75100
C189        C  0.39643738  0.34292388  0.43100442     0.85700
N190        N  0.36393672  0.34375258  0.43115495    -0.75000
C191        C  0.33512278  0.31965829  0.41920172     0.85800
N192        N  0.33892053  0.29492294  0.40711146    -0.76700
C193        C  0.50650087  0.15636657  0.40062747     0.83200
N194        N  0.50109666  0.12641760  0.41210931    -0.75100
C195        C  0.02981617  0.12840993  0.42320493     0.85700
N196        N  0.06360035  0.16030976  0.42286367    -0.75000
C197        C  0.06901314  0.19010573  0.41144821     0.85800
N198        N  0.04046528  0.18812224  0.40038361    -0.76700
C199        C  0.16664641  0.48791928  0.42060035     0.83200
N200        N  0.17025879  0.45624270  0.42138616    -0.75100
C201        C  0.19753507  0.45457923  0.41127132     0.85700
N202        N  0.22125085  0.48462272  0.40036671    -0.75000
C203        C  0.21787184  0.51638639  0.39955763     0.85800
N204        N  0.19051065  0.51813670  0.40966833    -0.76700
C205        C  0.23710888  0.32140590  0.41584268     0.06200
C206        C  0.20329677  0.28708487  0.41460986    -0.10000
C207        C  0.16970126  0.28759163  0.41250548     0.03700
C208        C  0.16999228  0.32240667  0.41160310    -0.08500
C209        C  0.20362631  0.35668759  0.41290186     0.06200
C210        C  0.23720349  0.35620196  0.41498017    -0.07900
H211        H  0.20312304  0.26014525  0.41533511     0.11700
H212        H  0.14402592  0.32282647  0.41006113     0.09300
H213        H  0.26325925  0.38275743  0.41596881     0.09100
O214        O  0.02965350  0.39143213  0.51240816    -0.77900
O215        O  0.02686568  0.02207660  0.45987872    -0.62600
O216        O  0.04494459  0.46312111  0.49821787    -1.09200
C217        C  0.45119258  0.46785756  0.53420500     1.09000
O218        O  0.01222869  0.05561222  0.48059597    -0.75800
O219        O  0.04049624  0.04771279  0.51594440    -0.63300
Ni220      Ni  0.04753350  0.41966154  0.48837486     1.34900
C221        C  0.05124293  0.03154938  0.52839958     0.87800
O222        O  0.07886396  0.50183513  0.46393606    -0.76300
O223        O  0.06893199  0.44240493  0.46341092    -0.86600
C224        C  0.02042010  0.04913312  0.46352284     0.87300
O225        O  0.49836797  0.39728418  0.47755809    -0.64800
O226        O  0.46846313  0.00228882  0.52864330    -0.84100
C227        C  0.48680977  0.41286691  0.46516751     0.88200
C228        C  0.08582333  0.47653722  0.45747917     1.09700
H229        H  0.47115289  0.46652413  0.48725116     0.41500
O230        O  0.99409886  0.48258163  0.49437369    -1.06700
O231        O  0.03456410  0.99561188  0.53081963    -0.63400
Ni232      Ni  0.00235106  0.45283625  0.51369530     1.26300
O233        O  0.50334473  0.44867251  0.46222535    -0.63600
O234        O  0.45902616  0.44294504  0.52807165    -0.75900
C235        C  0.01922832  0.39663016  0.52912295     0.87500
O236        O  0.01065360  0.42228075  0.53244443    -0.63100
Ni237      Ni  0.99208374  0.02628148  0.50421452     1.27400
Ni238      Ni  0.03611237  0.49229656  0.47872339     1.26100
H239        H  0.06775849  0.47947207  0.50537671     0.42100
C240        C  0.37714502  0.50635648  0.25488197     0.83200
N241        N  0.35041676  0.48008664  0.24263158    -0.75100
C242        C  0.35733207  0.45534038  0.23230866     0.85700
N243        N  0.39063795  0.45671618  0.23435785    -0.75000
C244        C  0.41718657  0.48275104  0.24660587     0.85800
N245        N  0.41045862  0.50756534  0.25690147    -0.76700
C246        C  0.22202176  0.17950522  0.23817195     0.83200
N247        N  0.18807483  0.14774213  0.23774260    -0.75100
C248        C  0.18205908  0.11711131  0.24861660     0.85700
N249        N  0.20995496  0.11818266  0.25984220    -0.75000
C250        C  0.24390712  0.14980096  0.26030076     0.85800
N251        N  0.25005988  0.18054364  0.24941240    -0.76700
C252        C  0.02920926  0.28608149  0.26088752     0.83200
N253        N  0.05347379  0.28197187  0.24912724    -0.75100
C254        C  0.07786191  0.31174720  0.23811270     0.85700
N255        N  0.07778183  0.34536525  0.23883527    -0.75000
C256        C  0.05357921  0.34942106  0.25057505     0.85800
N257        N  0.02932082  0.31976825  0.26155747    -0.76700
C258        C  0.01597815  0.48333637  0.25012631     0.06200
C259        C  0.04921318  0.51794250  0.24920373    -0.10000
C260        C  0.08324885  0.51831589  0.24905620     0.03700
C261        C  0.08409406  0.48403554  0.24980147    -0.08500
C262        C  0.05088545  0.44932671  0.25070254     0.06200
C263        C  0.01678081  0.44899407  0.25089939    -0.07900
H264        H  0.04858708  0.04449042  0.24854655     0.11700
H265        H  0.11049954  0.48436914  0.24963283     0.09300
H266        H  0.49101567  0.42216691  0.25148353     0.09100
O267        O  0.31449704  0.34627491  0.14720244    -0.77900
O268        O  0.18098198  0.31745790  0.20110259    -0.62600
O269        O  0.24118595  0.30709059  0.16187907    -1.09200
C270        C  0.21305442  0.39119714  0.12608181     1.09000
O271        O  0.13699524  0.30893354  0.17931605    -0.75800
O272        O  0.14633308  0.29884665  0.14081263    -0.63300
Ni273      Ni  0.28890120  0.31294532  0.16889119     1.34900
C274        C  0.16387503  0.28706593  0.13029782     0.87800
O275        O  0.21395224  0.27494153  0.19877851    -0.76300
O276        O  0.26834931  0.27877351  0.19077310    -0.86600
C277        C  0.14854664  0.31149922  0.19704663     0.87300
O278        O  0.30516769  0.35654333  0.18565823    -0.64800
O279        O  0.18319295  0.37709533  0.13591837    -0.84100
C280        C  0.28766755  0.36832614  0.19618755     0.88200
C281        C  0.23881422  0.26524131  0.20083801     1.09700
H282        H  0.22439712  0.37356839  0.17048187     0.41500
O283        O  0.21017634  0.34843916  0.16468738    -1.06700
O284        O  0.19906457  0.30282301  0.13006449    -0.63400
Ni285      Ni  0.23967736  0.34369084  0.14453228     1.26300
O286        O  0.25250632  0.35282666  0.19639560    -0.63600
O287        O  0.23772600  0.38116670  0.12798496    -0.75900
C288        C  0.30303252  0.34446492  0.12951496     0.87500
O289        O  0.27058894  0.33850616  0.12550934    -0.63100
Ni290      Ni  0.16245773  0.34244094  0.15765262     1.27400
Ni291      Ni  0.21176798  0.31199413  0.18207100     1.26100
H292        H  0.22688459  0.28197068  0.15608487     0.42100
O293        O  0.28306914  0.08427901  0.34377734    -0.77900
O294        O  0.42130367  0.18633827  0.29351487    -0.62600
O295        O  0.35656917  0.11410915  0.33073182    -1.09200
C296        C  0.38651409  0.22564602  0.36832976     1.09000
O297        O  0.46380142  0.21756287  0.31681848    -0.75800
O298        O  0.45194086  0.20080005  0.35552707    -0.63300
Ni299      Ni  0.30841119  0.07415079  0.32283257     1.34900
C300        C  0.43396186  0.17002387  0.36490182     0.87800
O301        O  0.38441632  0.11006096  0.29394055    -0.76300
O302        O  0.32936317  0.05944766  0.30153922    -0.86600
C303        C  0.45398070  0.21107848  0.29872568     0.87300
O304        O  0.29504245  0.10269413  0.30545264    -0.64800
O305        O  0.41576825  0.24248144  0.35806028    -0.84100
C306        C  0.31389969  0.13284264  0.29578199     0.88200
C307        C  0.35916746  0.07546150  0.29164201     1.09700
H308        H  0.37658201  0.19829673  0.32406371     0.41500
O309        O  0.39019700  0.18664862  0.32963929    -1.06700
O310        O  0.39886263  0.14889229  0.36345177    -0.63400
Ni311      Ni  0.35933187  0.15158991  0.34904726     1.26300
O312        O  0.34910635  0.15237973  0.29674048    -0.63600
O313        O  0.36258657  0.19047972  0.36661164    -0.75900
C314        C  0.29310732  0.09063392  0.36183602     0.87500
O315        O  0.32614796  0.11442528  0.36698544    -0.63100
Ni316      Ni  0.43775349  0.22772457  0.33735388     1.27400
Ni317      Ni  0.38787627  0.14918014  0.31142293     1.26100
H318        H  0.36965797  0.10188675  0.33628900     0.42100
C319        C  0.05291155  0.38471109  0.25099084    -0.10200
C320        C  0.05189529  0.41411020  0.25105503    -0.11800
C321        C  0.50328414  0.25521169  0.27279638    -0.10200
C322        C  0.48070339  0.23282296  0.28400163    -0.11800
C323        C  0.12389584  0.30757301  0.21279980    -0.10200
C324        C  0.10285488  0.30767533  0.22499245    -0.11800
C325        C  0.11737437  0.05390578  0.24829224    -0.10200
C326        C  0.14648185  0.08326017  0.24811459    -0.11800
C327        C  0.22843243  0.21133535  0.22612529    -0.10200
C328        C  0.23311454  0.23667764  0.21509104    -0.11800
C329        C  0.27300577  0.14989342  0.27220922    -0.10200
C330        C  0.29383046  0.14477167  0.28280985    -0.11800
C331        C  0.48111420  0.48323387  0.24974992    -0.10200
C332        C  0.45211129  0.48351097  0.24873795    -0.11800
C333        C  0.32946540  0.42669391  0.21962273    -0.10200
C334        C  0.30903744  0.40067470  0.20885829    -0.11800
C335        C  0.36484166  0.05250546  0.27735923    -0.10200
C336        C  0.36985893  0.03179544  0.26646574    -0.11800
C337        C  0.20114155  0.42096038  0.41195231    -0.10200
C338        C  0.20326566  0.39219672  0.41236889    -0.11800
C339        C  0.26612956  0.06973366  0.37656196    -0.10200
C340        C  0.24331809  0.04755096  0.38771099    -0.11800
C341        C  0.13812821  0.48932587  0.43193035    -0.10200
C342        C  0.11393873  0.48607020  0.44288983    -0.11800
C343        C  0.10482076  0.22393689  0.41135434    -0.10200
C344        C  0.13471199  0.25256866  0.41167662    -0.11800
C345        C  0.45503992  0.15930135  0.37806323    -0.10200
C346        C  0.47663100  0.15525423  0.38872909    -0.11800
C347        C  0.02268480  0.07429921  0.44781978    -0.10200
C348        C  0.02471072  0.09759354  0.43592913    -0.11800
C349        C  0.30080419  0.32069776  0.41892658    -0.10200
C350        C  0.27174031  0.32099406  0.41782839    -0.11800
C351        C  0.37562633  0.26849673  0.39392949    -0.10200
C352        C  0.38010056  0.24811408  0.38255340    -0.11800
C353        C  0.42723852  0.36833063  0.44346603    -0.10200
C354        C  0.45413679  0.38890593  0.45351229    -0.11800
C355        C  0.33385675  0.02344827  0.57638684    -0.10200
C356        C  0.33273268  0.05275791  0.57620190    -0.11800
C357        C  0.26774198  0.37648775  0.61412128    -0.10200
C358        C  0.28973807  0.39752583  0.60222202    -0.11800
C359        C  0.42136588  0.45737472  0.54789693    -0.10200
C360        C  0.39581905  0.45327042  0.55806005    -0.11800
C361        C  0.43185404  0.22088452  0.57942489    -0.10200
C362        C  0.40191278  0.19240293  0.57877435    -0.11800
C363        C  0.05874693  0.28750872  0.60396530    -0.10200
C364        C  0.07997920  0.28367441  0.61498168    -0.11800
C365        C  0.01678824  0.37148002  0.54481127    -0.10200
C366        C  0.01422645  0.34781498  0.55655848    -0.11800
C367        C  0.23572273  0.12484214  0.57560707    -0.10200
C368        C  0.26482740  0.12463256  0.57588897    -0.11800
C369        C  0.16005461  0.17594656  0.60073080    -0.10200
C370        C  0.15594644  0.19670745  0.61202624    -0.11800
C371        C  0.08308999  0.05507204  0.54072023    -0.10200
C372        C  0.10934331  0.07576999  0.55114184    -0.11800
C373        C  0.48963121  0.07212748  0.75070708    -0.10200
C374        C  0.98975618  0.04232856  0.74991799    -0.11800
C375        C  0.03791026  0.19722547  0.72319703    -0.10200
C376        C  0.05901033  0.21784222  0.71092626    -0.11800
C377        C  0.42170118  0.15995967  0.78293952    -0.10200
C378        C  0.44230580  0.15437390  0.77274025    -0.11800
C379        C  0.05864034  0.47183677  0.74467587    -0.10200
C380        C  0.08754137  0.47124396  0.74487241    -0.11800
C381        C  0.21201143  0.02267767  0.77180559    -0.10200
C382        C  0.23562239  0.04384557  0.78340625    -0.11800
C383        C  0.16535706  0.41910691  0.72404059    -0.10200
C384        C  0.17039302  0.39805607  0.71338722    -0.11800
C385        C  0.39309744  0.37328258  0.74320485    -0.10200
C386        C  0.42207929  0.40279237  0.74378207    -0.11800
C387        C  0.31847414  0.24421418  0.76503273    -0.10200
C388        C  0.32266388  0.22351110  0.77646575    -0.11800
C389        C  0.26608357  0.30204272  0.72018250    -0.10200
C390        C  0.24516599  0.30731651  0.70962754    -0.11800
C391        C  0.44610960  0.23533012  0.87568743    -0.10200
C392        C  0.47051678  0.25675672  0.88691513    -0.11800
C393        C  0.02614057  0.36443723  0.93290696    -0.10200
C394        C  0.03001513  0.38960075  0.94408164    -0.11800
C395        C  0.12682443  0.30714276  0.91075392    -0.10200
C396        C  0.09773773  0.30738863  0.91002887    -0.11800
C397        C  0.19440661  0.23521281  0.91462296    -0.10200
C398        C  0.19458247  0.20542181  0.91486365    -0.11800
C399        C  0.24184277  0.12583362  0.88906889    -0.10200
C400        C  0.26116045  0.12039338  0.87779184    -0.11800
C401        C  0.14806416  0.07770632  0.93947287    -0.10200
C402        C  0.12805190  0.05213138  0.95017928    -0.11800
C403        C  0.29303319  0.40438673  0.91577248    -0.10200
C404        C  0.26378143  0.37506690  0.91549002    -0.11800
C405        C  0.36197577  0.03360102  0.89325545    -0.10200
C406        C  0.35717963  0.05451675  0.88232711    -0.11800
C407        C  0.44542313  0.48537694  0.94842571    -0.10200
C408        C  0.42123504  0.48247834  0.93710122    -0.11800
C409        C  0.33074423  0.10635027  0.07946481    -0.10200
C410        C  0.30167609  0.07681714  0.07986005    -0.11800
C411        C  0.21945168  0.42100709  0.11241667    -0.10200
C412        C  0.22417301  0.44721281  0.10197216    -0.11800
C413        C  0.17477631  0.50366055  0.05583513    -0.10200
C414        C  0.15094755  0.50089418  0.04432000    -0.11800
C415        C  0.39953053  0.24620118  0.07342846    -0.10200
C416        C  0.39952966  0.27611575  0.07287562    -0.11800
C417        C  0.34896200  0.35035668  0.10125018    -0.10200
C418        C  0.32787904  0.34941991  0.11370413    -0.11800
C419        C  0.44560381  0.40654928  0.05214553    -0.10200
C420        C  0.46619633  0.43292492  0.04197407    -0.11800
C421        C  0.46744224  0.17505553  0.08042760    -0.10200
C422        C  0.49633082  0.17456361  0.08158100    -0.11800
C423        C  0.12146410  0.22808018  0.10720087    -0.10200
C424        C  0.14248459  0.25438031  0.11771782    -0.11800
C425        C  0.07111549  0.11986478  0.06096927    -0.10200
C426        C  0.06714833  0.09507976  0.04948618    -0.11800
C427        C  0.06766139  0.64756008  0.07289306     0.83200
N428        N  0.09633392  0.67351450  0.08440683    -0.75100
C429        C  0.09183509  0.69959660  0.09513527     0.85700
N430        N  0.05907131  0.69970630  0.09421713    -0.75000
C431        C  0.53070368  0.67394773  0.08273898     0.85800
N432        N  0.03504643  0.64799101  0.07209072    -0.76700
C433        C  0.42092378  0.87461266  0.06394483     0.83200
N434        N  0.42165131  0.84134403  0.06262403    -0.75100
C435        C  0.39843310  0.81117290  0.07372591     0.85700
N436        N  0.37464471  0.81434495  0.08617052    -0.75000
C437        C  0.37378324  0.84745084  0.08753906     0.85800
N438        N  0.39699930  0.87768345  0.07644730    -0.76700
C439        C  0.22906693  0.97905652  0.09025567     0.83200
N440        N  0.20033637  0.97650320  0.07907805    -0.75100
C441        C  0.20470230  0.00668840  0.06824689     0.85700
N442        N  0.23788071  0.53936150  0.06853522    -0.75000
C443        C  0.26661408  0.54205813  0.07971886     0.85800
N444        N  0.26220762  0.01188736  0.09058812    -0.76700
C445        C  0.36541409  0.64162421  0.07858161     0.06200
C446        C  0.39913607  0.64132569  0.07994485    -0.10000
C447        C  0.43287807  0.67547333  0.07895993     0.03700
C448        C  0.43295459  0.71000758  0.07659276    -0.08500
C449        C  0.39931080  0.71047164  0.07523917     0.06200
C450        C  0.36553071  0.67624283  0.07624066    -0.07900
H451        H  0.39912475  0.61461056  0.08175907     0.11700
H452        H  0.45909898  0.73644102  0.07592081     0.09300
H453        H  0.33946249  0.67655836  0.07527087     0.09100
C454        C  0.36107714  0.50315727  0.90474401     0.83200
N455        N  0.32908021  0.96934772  0.90506562    -0.75100
C456        C  0.32726004  0.93988566  0.91549099     0.85700
N457        N  0.35761130  0.94416856  0.92568311    -0.75000
C458        C  0.38983252  0.97790258  0.92540562     0.85800
N459        N  0.39158131  0.50755240  0.91495589    -0.76700
C460        C  0.21810709  0.63144950  0.90236221     0.83200
N461        N  0.19526974  0.60292407  0.91444351    -0.75100
C462        C  0.17232283  0.60796936  0.92674533     0.85700
N463        N  0.17219023  0.64155292  0.92693564    -0.75000
C464        C  0.19501878  0.67007389  0.91485808     0.85800
N465        N  0.21793980  0.66500253  0.90256528    -0.76700
C466        C  0.19464221  0.77099604  0.91416599     0.06200
C467        C  0.16114346  0.77172255  0.91261996    -0.10000
C468        C  0.16140529  0.80658264  0.91212660     0.03700
C469        C  0.19530146  0.84077289  0.91317369    -0.08500
C470        C  0.22885543  0.84005626  0.91468956     0.06200
C471        C  0.22845425  0.80514939  0.91518908    -0.07900
H472        H  0.13496972  0.74525971  0.91183109     0.11700
H473        H  0.19556939  0.86778362  0.91279181     0.09300
H474        H  0.25438154  0.80456161  0.91632154     0.09100
C475        C  0.02822950  0.83596777  0.92096288     0.83200
N476        N  0.06051299  0.83485491  0.92085719    -0.75100
C477        C  0.06339141  0.80829503  0.90988915     0.85700
N478        N  0.03380980  0.78261216  0.89896146    -0.75000
C479        C  0.00134096  0.78346879  0.89903578     0.85800
N480        N  0.99853217  0.81024630  0.91002738    -0.76700
O481        O  0.46576242  0.99738492  0.98111906    -0.77900
O482        O  0.09613518  0.99896930  0.03322267    -0.62600
O483        O  0.03891314  0.51869664  0.99482943    -1.09200
C484        C  0.04106861  0.91962846  0.95854873     1.09000
O485        O  0.13136535  0.99051040  0.01149168    -0.75800
O486        O  0.12079030  0.50883258  0.97454435    -0.63300
Ni487      Ni  0.49744219  0.52395450  0.00355093     1.34900
C488        C  0.10503689  0.52144134  0.96300924     0.87800
O489        O  0.07735227  0.55275830  0.03034207    -0.76300
O490        O  0.02397308  0.55372161  0.02656425    -0.86600
C491        C  0.12457669  0.99639908  0.02898817     0.87300
O492        O  0.47514664  0.97789167  0.01818673    -0.64800
O493        O  0.07325810  0.93259348  0.96635606    -0.84100
C494        C  0.49008745  0.96403178  0.02950658     0.88200
C495        C  0.05573428  0.56552947  0.03468543     1.09700
H496        H  0.04124941  0.94315552  0.00470241     0.41500
O497        O  0.05744735  0.96655680  0.99803197    -1.06700
O498        O  0.07004214  0.50817571  0.96206783    -0.63400
Ni499      Ni  0.02862036  0.97546453  0.97848164     1.26300
O500        O  0.02495460  0.97618620  0.03045342    -0.63600
O501        O  0.01877283  0.93159005  0.96296781    -0.75900
C502        C  0.47167182  0.98956548  0.96381995     0.87500
O503        O  0.49903137  0.98489935  0.95979009    -0.63100
Ni504      Ni  0.09971508  0.96289666  0.98923075     1.27400
Ni505      Ni  0.06721960  0.00921853  0.01452684     1.26100
H506        H  0.05554038  0.54189040  0.98812428     0.42100
C507        C  0.32149309  0.77523645  0.75311924     0.83200
N508        N  0.35444394  0.80815504  0.75324973    -0.75100
C509        C  0.35839020  0.83839364  0.74274369     0.85700
N510        N  0.32931269  0.83587808  0.73207177    -0.75000
C511        C  0.29619954  0.80317561  0.73178224     0.85800
N512        N  0.29209665  0.77262275  0.74237614    -0.76700
C513        C  0.15981883  0.94540879  0.73597707     0.83200
N514        N  0.18771821  0.97078541  0.74795229    -0.75100
C515        C  0.18284025  0.99626093  0.75884996     0.85700
N516        N  0.15005301  0.49629832  0.75780782    -0.75000
C517        C  0.12217179  0.97103191  0.74583070     0.85800
N518        N  0.12703927  0.94557443  0.73490183    -0.76700
C519        C  0.01364765  0.66901032  0.73680382     0.83200
N520        N  0.01342835  0.63534309  0.73781106    -0.75100
C521        C  0.49024061  0.60799070  0.75026738     0.85700
N522        N  0.46700184  0.61421702  0.76172467    -0.75000
C523        C  0.46712798  0.64791782  0.76073348     0.85800
N524        N  0.49043488  0.67533179  0.74823998    -0.76700
C525        C  0.02400169  0.47223702  0.74508798     0.06200
C526        C  0.99035590  0.93793730  0.74386042    -0.10000
C527        C  0.45658324  0.93808425  0.74474548     0.03700
C528        C  0.45642052  0.47256114  0.74682056    -0.08500
C529        C  0.99002605  0.50690913  0.74804402     0.06200
C530        C  0.02383460  0.50674902  0.74715314    -0.07900
H531        H  0.99045469  0.91120783  0.74235652     0.11700
H532        H  0.43025058  0.47265562  0.74749704     0.09300
H533        H  0.04987298  0.53332817  0.74811554     0.09100
O534        O  0.42551696  0.72238372  0.84296017    -0.77900
O535        O  0.29236840  0.59569520  0.79329641    -0.62600
O536        O  0.35052688  0.67490884  0.83056209    -1.09200
C537        C  0.34572029  0.57320882  0.86800063     1.09000
O538        O  0.25486699  0.55759450  0.81628372    -0.75800
O539        O  0.26747954  0.58238397  0.85414150    -0.63300
Ni540      Ni  0.39259125  0.72125853  0.82208711     1.34900
C541        C  0.28344097  0.61264588  0.86446524     0.87800
O542        O  0.31440175  0.66981314  0.79400434    -0.76300
O543        O  0.36424272  0.72668333  0.80074118    -0.86600
C544        C  0.26248921  0.56673015  0.79831532     0.87300
O545        O  0.41279713  0.69854911  0.80504761    -0.64800
O546        O  0.31460822  0.55275352  0.85919004    -0.84100
C547        C  0.39811474  0.66743247  0.79541074     0.88200
C548        C  0.33421526  0.70542367  0.79120263     1.09700
H549        H  0.34577832  0.59570999  0.82278216     0.41500
O550        O  0.32973477  0.60375370  0.82890769    -1.06700
O551        O  0.31800326  0.63623334  0.86384771    -0.63400
Ni552      Ni  0.35901004  0.64238688  0.84799263     1.26300
O553        O  0.36392166  0.64257627  0.79619667    -0.63600
O554        O  0.36685583  0.60844691  0.86468085    -0.75900
C555        C  0.41876671  0.71243679  0.86088192     0.87500
O556        O  0.38943867  0.68283741  0.86592823    -0.63100
Ni557      Ni  0.28693394  0.55831577  0.83753063     1.27400
Ni558      Ni  0.32197117  0.63627494  0.81124364     1.26100
H559        H  0.33395306  0.68215017  0.83676665     0.42100
C560        C  0.16447463  0.65030511  0.58773848     0.83200
N561        N  0.19709365  0.64986455  0.58763806    -0.75100
C562        C  0.20116075  0.62527259  0.57557625     0.85700
N563        N  0.17250362  0.60099183  0.56362551    -0.75000
C564        C  0.13981247  0.60137316  0.56374471     0.85800
N565        N  0.13583465  0.62602840  0.57581478    -0.76700
C566        C  0.02976379  0.78704014  0.59161646     0.83200
N567        N  0.03612125  0.81755511  0.58038183    -0.75100
C568        C  0.00814245  0.81637161  0.56896512     0.85700
N569        N  0.97415057  0.78474155  0.56873085    -0.75000
C570        C  0.46782372  0.75438425  0.57990070     0.85800
N571        N  0.99561801  0.75553701  0.59130560    -0.76700
C572        C  0.36648273  0.95476435  0.56862795     0.83200
N573        N  0.34223900  0.92508151  0.57979607    -0.75100
C574        C  0.31492819  0.92760239  0.58960547     0.85700
N575        N  0.31214781  0.45967951  0.58830672    -0.75000
C576        C  0.33623748  0.48914818  0.57718618     0.85800
N577        N  0.36339515  0.48669235  0.56740427    -0.76700
C578        C  0.29942067  0.62404188  0.57636129     0.06200
C579        C  0.33332457  0.65823478  0.57731918    -0.10000
C580        C  0.36691657  0.65750763  0.57782066     0.03700
C581        C  0.36655580  0.62261956  0.57735893    -0.08500
C582        C  0.33275880  0.58846152  0.57642427     0.06200
C583        C  0.29918858  0.58917167  0.57593136    -0.07900
H584        H  0.33356336  0.68523549  0.57767562     0.11700
H585        H  0.39253465  0.62204898  0.57776740     0.09300
H586        H  0.27300456  0.56271151  0.57525337     0.09100
O587        O  0.07390209  0.72995922  0.67766998    -0.77900
O588        O  0.20894838  0.83115766  0.62511554    -0.62600
O589        O  0.14721952  0.76130061  0.66405090    -1.09200
C590        C  0.17663762  0.87453146  0.69969120     1.09000
O591        O  0.25272806  0.86518035  0.64744031    -0.75800
O592        O  0.24238941  0.84799494  0.68625721    -0.63300
Ni593      Ni  0.09961655  0.71919232  0.65717066     1.34900
C594        C  0.22432051  0.81852123  0.69660705     0.87800
O595        O  0.17396387  0.75515819  0.62724222    -0.76300
O596        O  0.12109128  0.70359682  0.63656833    -0.86600
C597        C  0.24183219  0.85654917  0.62956043     0.87300
O598        O  0.08408230  0.74443329  0.63863992    -0.64800
O599        O  0.20640334  0.89022413  0.68974456    -0.84100
C600        C  0.10152215  0.77425830  0.62847163     0.88200
C601        C  0.15003301  0.71989831  0.62603204     1.09700
H602        H  0.16565421  0.84493099  0.65549406     0.41500
O603        O  0.17941810  0.83369031  0.66135595    -1.06700
O604        O  0.18909970  0.79878847  0.69620905    -0.63400
Ni605      Ni  0.14925809  0.79979019  0.68139528     1.26300
O606        O  0.13660224  0.79562769  0.62937852    -0.63600
O607        O  0.15190279  0.83966006  0.69795425    -0.75900
C608        C  0.08461418  0.73827239  0.69556564     0.87500
O609        O  0.11728543  0.76384504  0.70011056    -0.63100
Ni610      Ni  0.22734445  0.87503880  0.66856349     1.27400
Ni611      Ni  0.17701893  0.79512208  0.64391974     1.26100
H612        H  0.16135290  0.75047213  0.66991376     0.42100
C613        C  0.37134308  0.79409185  0.40699609     0.83200
N614        N  0.40008669  0.81814446  0.41889604    -0.75100
C615        C  0.39643738  0.84292390  0.43100442     0.85700
N616        N  0.36393671  0.84375259  0.43115495    -0.75000
C617        C  0.33512277  0.81965830  0.41920172     0.85800
N618        N  0.33892052  0.79492296  0.40711146    -0.76700
C619        C  0.50650088  0.65636658  0.40062747     0.83200
N620        N  0.50109664  0.62641761  0.41210932    -0.75100
C621        C  0.02981615  0.62840993  0.42320494     0.85700
N622        N  0.06360035  0.66030975  0.42286367    -0.75000
C623        C  0.06901315  0.69010571  0.41144821     0.85800
N624        N  0.04046529  0.68812224  0.40038361    -0.76700
C625        C  0.16664646  0.98791933  0.42060038     0.83200
N626        N  0.17025884  0.95624275  0.42138620    -0.75100
C627        C  0.19753509  0.95457925  0.41127134     0.85700
N628        N  0.22125085  0.98462272  0.40036671    -0.75000
C629        C  0.21787183  0.01638639  0.39955763     0.85800
N630        N  0.19051067  0.01813673  0.40966834    -0.76700
C631        C  0.23710888  0.82140591  0.41584268     0.06200
C632        C  0.20329677  0.78708488  0.41460986    -0.10000
C633        C  0.16970125  0.78759163  0.41250548     0.03700
C634        C  0.16999227  0.82240667  0.41160310    -0.08500
C635        C  0.20362629  0.85668759  0.41290186     0.06200
C636        C  0.23720347  0.85620197  0.41498017    -0.07900
H637        H  0.20312305  0.76014526  0.41533511     0.11700
H638        H  0.14402590  0.82282646  0.41006114     0.09300
H639        H  0.26325923  0.88275744  0.41596882     0.09100
O640        O  0.02965352  0.89143213  0.51240815    -0.77900
O641        O  0.02686567  0.52207660  0.45987872    -0.62600
O642        O  0.04494461  0.96312111  0.49821788    -1.09200
C643        C  0.45119261  0.96785759  0.53420500     1.09000
O644        O  0.01222858  0.55561216  0.48059596    -0.75800
O645        O  0.04049618  0.54771280  0.51594439    -0.63300
Ni646      Ni  0.04753352  0.91966155  0.48837485     1.34900
C647        C  0.05124290  0.53154942  0.52839957     0.87800
O648        O  0.07886398  0.00183515  0.46393607    -0.76300
O649        O  0.06893200  0.94240494  0.46341092    -0.86600
C650        C  0.02042004  0.54913309  0.46352283     0.87300
O651        O  0.49836798  0.89728419  0.47755809    -0.64800
O652        O  0.46846309  0.50228879  0.52864330    -0.84100
C653        C  0.48680978  0.91286692  0.46516751     0.88200
C654        C  0.08582335  0.97653724  0.45747918     1.09700
H655        H  0.47115285  0.96652412  0.48725114     0.41500
O656        O  0.99409889  0.98258166  0.49437370    -1.06700
O657        O  0.03456410  0.49561192  0.53081962    -0.63400
Ni658      Ni  0.00235106  0.95283625  0.51369529     1.26300
O659        O  0.50334474  0.94867252  0.46222535    -0.63600
O660        O  0.45902616  0.94294506  0.52807164    -0.75900
C661        C  0.01922831  0.89663013  0.52912294     0.87500
O662        O  0.01065357  0.92228071  0.53244442    -0.63100
Ni663      Ni  0.99208366  0.52628144  0.50421451     1.27400
Ni664      Ni  0.03611238  0.99229657  0.47872339     1.26100
H665        H  0.06775846  0.97947204  0.50537670     0.42100
C666        C  0.37714500  0.00635644  0.25488199     0.83200
N667        N  0.35041674  0.98008660  0.24263160    -0.75100
C668        C  0.35733205  0.95534033  0.23230868     0.85700
N669        N  0.39063793  0.95671614  0.23435787    -0.75000
C670        C  0.41718656  0.98275101  0.24660589     0.85800
N671        N  0.41045860  0.00756531  0.25690148    -0.76700
C672        C  0.22202176  0.67950524  0.23817195     0.83200
N673        N  0.18807482  0.64774216  0.23774261    -0.75100
C674        C  0.18205906  0.61711133  0.24861661     0.85700
N675        N  0.20995493  0.61818267  0.25984220    -0.75000
C676        C  0.24390711  0.64980095  0.26030076     0.85800
N677        N  0.25005988  0.68054363  0.24941240    -0.76700
C678        C  0.02920927  0.78608146  0.26088752     0.83200
N679        N  0.05347377  0.78197185  0.24912723    -0.75100
C680        C  0.07786187  0.81174717  0.23811268     0.85700
N681        N  0.07778178  0.84536521  0.23883526    -0.75000
C682        C  0.05357918  0.84942103  0.25057505     0.85800
N683        N  0.02932082  0.81976822  0.26155748    -0.76700
C684        C  0.01597816  0.98333638  0.25012632     0.06200
C685        C  0.04921321  0.01794250  0.24920373    -0.10000
C686        C  0.08324886  0.01831587  0.24905620     0.03700
C687        C  0.08409406  0.98403551  0.24980147    -0.08500
C688        C  0.05088544  0.94932668  0.25070254     0.06200
C689        C  0.01678081  0.94899407  0.25089939    -0.07900
H690        H  0.04858704  0.54449041  0.24854655     0.11700
H691        H  0.11049953  0.98436909  0.24963284     0.09300
H692        H  0.49101567  0.92216692  0.25148357     0.09100
O693        O  0.31449705  0.84627494  0.14720244    -0.77900
O694        O  0.18098195  0.81745787  0.20110258    -0.62600
O695        O  0.24118595  0.80709059  0.16187907    -1.09200
C696        C  0.21305439  0.89119712  0.12608181     1.09000
O697        O  0.13699521  0.80893345  0.17931602    -0.75800
O698        O  0.14633307  0.79884664  0.14081260    -0.63300
Ni699      Ni  0.28890121  0.81294535  0.16889119     1.34900
C700        C  0.16387502  0.78706589  0.13029781     0.87800
O701        O  0.21395224  0.77494153  0.19877851    -0.76300
O702        O  0.26834933  0.77877354  0.19077310    -0.86600
C703        C  0.14854660  0.81149917  0.19704661     0.87300
O704        O  0.30516768  0.85654335  0.18565823    -0.64800
O705        O  0.18319294  0.87709533  0.13591838    -0.84100
C706        C  0.28766752  0.86832615  0.19618756     0.88200
C707        C  0.23881424  0.76524133  0.20083801     1.09700
H708        H  0.22439712  0.87356842  0.17048187     0.41500
O709        O  0.21017631  0.84843913  0.16468736    -1.06700
O710        O  0.19906456  0.80282296  0.13006450    -0.63400
Ni711      Ni  0.23967734  0.84369081  0.14453227     1.26300
O712        O  0.25250629  0.85282665  0.19639560    -0.63600
O713        O  0.23772595  0.88116665  0.12798493    -0.75900
C714        C  0.30303253  0.84446493  0.12951496     0.87500
O715        O  0.27058894  0.83850614  0.12550934    -0.63100
Ni716      Ni  0.16245771  0.84244090  0.15765261     1.27400
Ni717      Ni  0.21176797  0.81199411  0.18207099     1.26100
H718        H  0.22688461  0.78197067  0.15608488     0.42100
O719        O  0.28306915  0.58427896  0.34377735    -0.77900
O720        O  0.42130367  0.68633828  0.29351487    -0.62600
O721        O  0.35656918  0.61410915  0.33073182    -1.09200
C722        C  0.38651411  0.72564603  0.36832976     1.09000
O723        O  0.46380142  0.71756286  0.31681848    -0.75800
O724        O  0.45194088  0.70080005  0.35552707    -0.63300
Ni725      Ni  0.30841120  0.57415079  0.32283257     1.34900
C726        C  0.43396187  0.67002388  0.36490182     0.87800
O727        O  0.38441634  0.61006098  0.29394055    -0.76300
O728        O  0.32936317  0.55944769  0.30153920    -0.86600
C729        C  0.45398070  0.71107847  0.29872568     0.87300
O730        O  0.29504244  0.60269414  0.30545266    -0.64800
O731        O  0.41576827  0.74248144  0.35806028    -0.84100
C732        C  0.31389967  0.63284265  0.29578200     0.88200
C733        C  0.35916747  0.57546153  0.29164199     1.09700
H734        H  0.37658202  0.69829673  0.32406372     0.41500
O735        O  0.39019700  0.68664863  0.32963929    -1.06700
O736        O  0.39886263  0.64889230  0.36345177    -0.63400
Ni737      Ni  0.35933187  0.65158992  0.34904726     1.26300
O738        O  0.34910634  0.65237973  0.29674048    -0.63600
O739        O  0.36258658  0.69047973  0.36661164    -0.75900
C740        C  0.29310734  0.59063391  0.36183603     0.87500
O741        O  0.32614798  0.61442529  0.36698544    -0.63100
Ni742      Ni  0.43775350  0.72772457  0.33735388     1.27400
Ni743      Ni  0.38787627  0.64918015  0.31142294     1.26100
H744        H  0.36965797  0.60188677  0.33628900     0.42100
C745        C  0.05291151  0.88471105  0.25099084    -0.10200
C746        C  0.05189526  0.91411017  0.25105504    -0.11800
C747        C  0.50328414  0.75521167  0.27279637    -0.10200
C748        C  0.48070339  0.73282294  0.28400163    -0.11800
C749        C  0.12389579  0.80757297  0.21279977    -0.10200
C750        C  0.10285483  0.80767531  0.22499242    -0.11800
C751        C  0.11737434  0.55390581  0.24829224    -0.10200
C752        C  0.14648182  0.58326020  0.24811460    -0.11800
C753        C  0.22843244  0.71133536  0.22612529    -0.10200
C754        C  0.23311456  0.73667766  0.21509104    -0.11800
C755        C  0.27300575  0.64989341  0.27220922    -0.10200
C756        C  0.29383045  0.64477166  0.28280986    -0.11800
C757        C  0.48111421  0.98323389  0.24974994    -0.10200
C758        C  0.45211129  0.98351096  0.24873796    -0.11800
C759        C  0.32946537  0.92669388  0.21962276    -0.10200
C760        C  0.30903740  0.90067468  0.20885831    -0.11800
C761        C  0.36484167  0.55250549  0.27735922    -0.10200
C762        C  0.36985895  0.53179547  0.26646572    -0.11800
C763        C  0.20114155  0.92096039  0.41195233    -0.10200
C764        C  0.20326564  0.89219672  0.41236891    -0.11800
C765        C  0.26612959  0.56973368  0.37656198    -0.10200
C766        C  0.24331811  0.54755098  0.38771101    -0.11800
C767        C  0.13812827  0.98932593  0.43193038    -0.10200
C768        C  0.11393877  0.98607024  0.44288985    -0.11800
C769        C  0.10482077  0.72393687  0.41135434    -0.10200
C770        C  0.13471199  0.75256866  0.41167662    -0.11800
C771        C  0.45503993  0.65930136  0.37806323    -0.10200
C772        C  0.47663101  0.65525425  0.38872909    -0.11800
C773        C  0.02268475  0.57429918  0.44781978    -0.10200
C774        C  0.02471069  0.59759354  0.43592913    -0.11800
C775        C  0.30080419  0.82069777  0.41892658    -0.10200
C776        C  0.27174030  0.82099407  0.41782839    -0.11800
C777        C  0.37562633  0.76849675  0.39392948    -0.10200
C778        C  0.38010057  0.74811410  0.38255340    -0.11800
C779        C  0.42723851  0.86833064  0.44346603    -0.10200
C780        C  0.45413678  0.88890594  0.45351229    -0.11800
C781        C  0.33385675  0.52344824  0.57638685    -0.10200
C782        C  0.33273268  0.55275789  0.57620190    -0.11800
C783        C  0.26774199  0.87648780  0.61412127    -0.10200
C784        C  0.28973808  0.89752587  0.60222201    -0.11800
C785        C  0.42136592  0.95737477  0.54789694    -0.10200
C786        C  0.39581911  0.95327049  0.55806006    -0.11800
C787        C  0.43185401  0.72088451  0.57942490    -0.10200
C788        C  0.40191275  0.69240292  0.57877435    -0.11800
C789        C  0.05874692  0.78750876  0.60396531    -0.10200
C790        C  0.07997920  0.78367448  0.61498168    -0.11800
C791        C  0.01678821  0.87147998  0.54481125    -0.10200
C792        C  0.01422641  0.84781493  0.55655845    -0.11800
C793        C  0.23572270  0.62484210  0.57560706    -0.10200
C794        C  0.26482737  0.62463251  0.57588895    -0.11800
C795        C  0.16005463  0.67594658  0.60073080    -0.10200
C796        C  0.15594645  0.69670749  0.61202624    -0.11800
C797        C  0.08308997  0.55507210  0.54072021    -0.10200
C798        C  0.10934330  0.57577005  0.55114181    -0.11800
C799        C  0.48963130  0.57212753  0.75070708    -0.10200
C800        C  0.98975623  0.54232858  0.74991799    -0.11800
C801        C  0.03791027  0.69722550  0.72319703    -0.10200
C802        C  0.05901032  0.71784225  0.71092625    -0.11800
C803        C  0.42170119  0.65995966  0.78293951    -0.10200
C804        C  0.44230582  0.65437388  0.77274024    -0.11800
C805        C  0.05864036  0.97183681  0.74467585    -0.10200
C806        C  0.08754140  0.97124402  0.74487239    -0.11800
C807        C  0.21201144  0.52267764  0.77180560    -0.10200
C808        C  0.23562240  0.54384555  0.78340625    -0.11800
C809        C  0.16535706  0.91910691  0.72404061    -0.10200
C810        C  0.17039301  0.89805607  0.71338724    -0.11800
C811        C  0.39309744  0.87328256  0.74320484    -0.10200
C812        C  0.42207930  0.90279234  0.74378207    -0.11800
C813        C  0.31847413  0.74421418  0.76503274    -0.10200
C814        C  0.32266388  0.72351110  0.77646576    -0.11800
C815        C  0.26608357  0.80204272  0.72018249    -0.10200
C816        C  0.24516598  0.80731652  0.70962754    -0.11800
C817        C  0.44610965  0.73533014  0.87568743    -0.10200
C818        C  0.47051683  0.75675674  0.88691512    -0.11800
C819        C  0.02614059  0.86443723  0.93290697    -0.10200
C820        C  0.03001514  0.88960076  0.94408165    -0.11800
C821        C  0.12682444  0.80714273  0.91075393    -0.10200
C822        C  0.09773775  0.80738861  0.91002889    -0.11800
C823        C  0.19440667  0.73521283  0.91462300    -0.10200
C824        C  0.19458254  0.70542182  0.91486368    -0.11800
C825        C  0.24184278  0.62583360  0.88906889    -0.10200
C826        C  0.26116048  0.62039337  0.87779184    -0.11800
C827        C  0.14806416  0.57770629  0.93947288    -0.10200
C828        C  0.12805189  0.55213136  0.95017929    -0.11800
C829        C  0.29303318  0.90438676  0.91577249    -0.10200
C830        C  0.26378143  0.87506693  0.91549004    -0.11800
C831        C  0.36197578  0.53360099  0.89325545    -0.10200
C832        C  0.35717965  0.55451673  0.88232711    -0.11800
C833        C  0.44542311  0.98537697  0.94842572    -0.10200
C834        C  0.42123503  0.98247838  0.93710123    -0.11800
C835        C  0.33074426  0.60635028  0.07946481    -0.10200
C836        C  0.30167613  0.57681715  0.07986005    -0.11800
C837        C  0.21945165  0.92100706  0.11241666    -0.10200
C838        C  0.22417298  0.94721278  0.10197215    -0.11800
C839        C  0.17477628  0.00366053  0.05583512    -0.10200
C840        C  0.15094754  0.00089419  0.04431999    -0.11800
C841        C  0.39953055  0.74620120  0.07342846    -0.10200
C842        C  0.39952968  0.77611577  0.07287563    -0.11800
C843        C  0.34896201  0.85035669  0.10125018    -0.10200
C844        C  0.32787905  0.84941993  0.11370413    -0.11800
C845        C  0.44560383  0.90654929  0.05214553    -0.10200
C846        C  0.46619634  0.93292494  0.04197408    -0.11800
C847        C  0.46744226  0.67505554  0.08042759    -0.10200
C848        C  0.49633083  0.67456361  0.08158100    -0.11800
C849        C  0.12146410  0.72808014  0.10720086    -0.10200
C850        C  0.14248459  0.75438028  0.11771781    -0.11800
C851        C  0.07111545  0.61986470  0.06096929    -0.10200
C852        C  0.06714830  0.59507968  0.04948620    -0.11800
C853        C  0.56766141  0.14756015  0.07289304     0.83200
N854        N  0.59633393  0.17351455  0.08440682    -0.75100
C855        C  0.59183507  0.19959662  0.09513528     0.85700
N856        N  0.55907129  0.19970631  0.09421714    -0.75000
C857        C  0.03070368  0.17394776  0.08273898     0.85800
N858        N  0.53504645  0.14799107  0.07209071    -0.76700
C859        C  0.92092375  0.37461264  0.06394483     0.83200
N860        N  0.92165128  0.34134401  0.06262402    -0.75100
C861        C  0.89843307  0.31117288  0.07372590     0.85700
N862        N  0.87464469  0.31434493  0.08617052    -0.75000
C863        C  0.87378322  0.34745082  0.08753906     0.85800
N864        N  0.89699928  0.37768343  0.07644730    -0.76700
C865        C  0.72906697  0.47905655  0.09025569     0.83200
N866        N  0.70033640  0.47650322  0.07907807    -0.75100
C867        C  0.70470232  0.50668841  0.06824690     0.85700
N868        N  0.73788069  0.03936147  0.06853521    -0.75000
C869        C  0.76661406  0.04205811  0.07971886     0.85800
N870        N  0.76220766  0.51188738  0.09058813    -0.76700
C871        C  0.86541407  0.14162419  0.07858161     0.06200
C872        C  0.89913606  0.14132567  0.07994486    -0.10000
C873        C  0.93287805  0.17547332  0.07895993     0.03700
C874        C  0.93295456  0.21000757  0.07659276    -0.08500
C875        C  0.89931078  0.21047163  0.07523917     0.06200
C876        C  0.86553069  0.17624282  0.07624066    -0.07900
H877        H  0.89912473  0.11461055  0.08175907     0.11700
H878        H  0.95909896  0.23644101  0.07592081     0.09300
H879        H  0.83946247  0.17655834  0.07527087     0.09100
C880        C  0.86107713  0.00315731  0.90474401     0.83200
N881        N  0.82908021  0.46934769  0.90506561    -0.75100
C882        C  0.82726004  0.43988562  0.91549098     0.85700
N883        N  0.85761131  0.44416852  0.92568310    -0.75000
C884        C  0.88983253  0.47790254  0.92540561     0.85800
N885        N  0.89158129  0.00755244  0.91495589    -0.76700
C886        C  0.71810707  0.13144952  0.90236221     0.83200
N887        N  0.69526974  0.10292410  0.91444351    -0.75100
C888        C  0.67232281  0.10796939  0.92674532     0.85700
N889        N  0.67219019  0.14155293  0.92693562    -0.75000
C890        C  0.69501873  0.17007389  0.91485805     0.85800
N891        N  0.71793976  0.16500254  0.90256526    -0.76700
C892        C  0.69464216  0.27099603  0.91416596     0.06200
C893        C  0.66114342  0.27172257  0.91261995    -0.10000
C894        C  0.66140526  0.30658266  0.91212659     0.03700
C895        C  0.69530145  0.34077290  0.91317368    -0.08500
C896        C  0.72885540  0.34005625  0.91468953     0.06200
C897        C  0.72845421  0.30514937  0.91518904    -0.07900
H898        H  0.63496967  0.24525973  0.91183108     0.11700
H899        H  0.69556939  0.36778364  0.91279180     0.09300
H900        H  0.75438149  0.30456158  0.91632148     0.09100
C901        C  0.52822947  0.33596777  0.92096287     0.83200
N902        N  0.56051296  0.33485492  0.92085718    -0.75100
C903        C  0.56339139  0.30829504  0.90988914     0.85700
N904        N  0.53380977  0.28261215  0.89896145    -0.75000
C905        C  0.50134093  0.28346878  0.89903577     0.85800
N906        N  0.49853213  0.31024629  0.91002738    -0.76700
O907        O  0.96576244  0.49738493  0.98111904    -0.77900
O908        O  0.59613520  0.49896931  0.03322268    -0.62600
O909        O  0.53891313  0.01869667  0.99482944    -1.09200
C910        C  0.54106860  0.41962845  0.95854873     1.09000
O911        O  0.63136531  0.49051025  0.01149170    -0.75800
O912        O  0.62079031  0.00883259  0.97454432    -0.63300
Ni913      Ni  0.99744218  0.02395452  0.00355093     1.34900
C914        C  0.60503689  0.02144138  0.96300923     0.87800
O915        O  0.57735228  0.05275835  0.03034207    -0.76300
O916        O  0.52397309  0.05372167  0.02656424    -0.86600
C917        C  0.62457669  0.49639903  0.02898819     0.87300
O918        O  0.97514663  0.47789163  0.01818671    -0.64800
O919        O  0.57325812  0.43259354  0.96635602    -0.84100
C920        C  0.99008743  0.46403174  0.02950657     0.88200
C921        C  0.55573430  0.06552953  0.03468542     1.09700
H922        H  0.54124944  0.44315554  0.00470242     0.41500
O923        O  0.55744734  0.46655676  0.99803199    -1.06700
O924        O  0.57004215  0.00817578  0.96206783    -0.63400
Ni925      Ni  0.52862036  0.47546449  0.97848165     1.26300
O926        O  0.52495461  0.47618621  0.03045343    -0.63600
O927        O  0.51877278  0.43158998  0.96296784    -0.75900
C928        C  0.97167183  0.48956546  0.96381994     0.87500
O929        O  0.99903137  0.48489930  0.95979009    -0.63100
Ni930      Ni  0.59971506  0.46289663  0.98923074     1.27400
Ni931      Ni  0.56721961  0.50921852  0.01452684     1.26100
H932        H  0.55554040  0.04189048  0.98812428     0.42100
C933        C  0.82149311  0.27523646  0.75311924     0.83200
N934        N  0.85444395  0.30815506  0.75324972    -0.75100
C935        C  0.85839020  0.33839366  0.74274370     0.85700
N936        N  0.82931269  0.33587809  0.73207178    -0.75000
C937        C  0.79619954  0.30317561  0.73178224     0.85800
N938        N  0.79209666  0.27262275  0.74237613    -0.76700
C939        C  0.65981882  0.44540876  0.73597708     0.83200
N940        N  0.68771820  0.47078538  0.74795230    -0.75100
C941        C  0.68284024  0.49626089  0.75884998     0.85700
N942        N  0.65005302  0.99629838  0.75780779    -0.75000
C943        C  0.62217177  0.47103185  0.74583073     0.85800
N944        N  0.62703925  0.44557438  0.73490185    -0.76700
C945        C  0.51364761  0.16901028  0.73680382     0.83200
N946        N  0.51342828  0.13534303  0.73781105    -0.75100
C947        C  0.99024055  0.10799068  0.75026737     0.85700
N948        N  0.96700180  0.11421701  0.76172467    -0.75000
C949        C  0.96712797  0.14791783  0.76073350     0.85800
N950        N  0.99043488  0.17533179  0.74823999    -0.76700
C951        C  0.52400170  0.97223704  0.74508798     0.06200
C952        C  0.49035588  0.43793729  0.74386042    -0.10000
C953        C  0.95658324  0.43808427  0.74474548     0.03700
C954        C  0.95642051  0.97256112  0.74682056    -0.08500
C955        C  0.49002602  0.00690910  0.74804402     0.06200
C956        C  0.52383458  0.00674902  0.74715314    -0.07900
H957        H  0.49045465  0.41120780  0.74235652     0.11700
H958        H  0.93025057  0.97265558  0.74749705     0.09300
H959        H  0.54987294  0.03332818  0.74811554     0.09100
O960        O  0.92551691  0.22238372  0.84296018    -0.77900
O961        O  0.79236838  0.09569520  0.79329642    -0.62600
O962        O  0.85052685  0.17490885  0.83056209    -1.09200
C963        C  0.84572026  0.07320884  0.86800064     1.09000
O964        O  0.75486696  0.05759450  0.81628372    -0.75800
O965        O  0.76747950  0.08238398  0.85414149    -0.63300
Ni966      Ni  0.89259121  0.22125853  0.82208711     1.34900
C967        C  0.78344094  0.11264588  0.86446524     0.87800
O968        O  0.81440174  0.16981314  0.79400433    -0.76300
O969        O  0.86424270  0.22668334  0.80074118    -0.86600
C970        C  0.76248919  0.06673016  0.79831532     0.87300
O971        O  0.91279711  0.19854912  0.80504762    -0.64800
O972        O  0.81460819  0.05275353  0.85919005    -0.84100
C973        C  0.89811473  0.16743248  0.79541076     0.88200
C974        C  0.83421525  0.20542367  0.79120263     1.09700
H975        H  0.84577827  0.09571000  0.82278218     0.41500
O976        O  0.82973475  0.10375370  0.82890769    -1.06700
O977        O  0.81800323  0.13623334  0.86384771    -0.63400
Ni978      Ni  0.85901000  0.14238688  0.84799264     1.26300
O979        O  0.86392164  0.14257627  0.79619668    -0.63600
O980        O  0.86685580  0.10844692  0.86468085    -0.75900
C981        C  0.91876666  0.21243678  0.86088193     0.87500
O982        O  0.88943862  0.18283740  0.86592823    -0.63100
Ni983      Ni  0.78693391  0.05831578  0.83753064     1.27400
Ni984      Ni  0.82197115  0.13627494  0.81124364     1.26100
H985        H  0.83395302  0.18215016  0.83676664     0.42100
C986        C  0.66447463  0.15030510  0.58773847     0.83200
N987        N  0.69709366  0.14986457  0.58763805    -0.75100
C988        C  0.70116077  0.12527260  0.57557625     0.85700
N989        N  0.67250364  0.10099181  0.56362552    -0.75000
C990        C  0.63981248  0.10137311  0.56374472     0.85800
N991        N  0.63583465  0.12602836  0.57581478    -0.76700
C992        C  0.52976382  0.28704013  0.59161646     0.83200
N993        N  0.53612128  0.31755512  0.58038184    -0.75100
C994        C  0.50814248  0.31637164  0.56896514     0.85700
N995        N  0.47415060  0.28474158  0.56873087    -0.75000
C996        C  0.96782375  0.25438426  0.57990070     0.85800
N997        N  0.49561804  0.25553701  0.59130558    -0.76700
C998        C  0.86648267  0.45476429  0.56862793     0.83200
N999        N  0.84223896  0.42508145  0.57979606    -0.75100
C1000       C  0.81492816  0.42760235  0.58960547     0.85700
N1001       N  0.81214783  0.95967955  0.58830672    -0.75000
C1002       C  0.83623750  0.98914822  0.57718618     0.85800
N1003       N  0.86339519  0.98669241  0.56740428    -0.76700
C1004       C  0.79942070  0.12404192  0.57636132     0.06200
C1005       C  0.83332460  0.15823482  0.57731921    -0.10000
C1006       C  0.86691659  0.15750766  0.57782068     0.03700
C1007       C  0.86655582  0.12261958  0.57735894    -0.08500
C1008       C  0.83275881  0.08846155  0.57642428     0.06200
C1009       C  0.79918860  0.08917170  0.57593137    -0.07900
H1010       H  0.83356339  0.18523553  0.57767567     0.11700
H1011       H  0.89253466  0.12204900  0.57776739     0.09300
H1012       H  0.77300457  0.06271156  0.57525338     0.09100
O1013       O  0.57390210  0.22995919  0.67766999    -0.77900
O1014       O  0.70894836  0.33115761  0.62511555    -0.62600
O1015       O  0.64721952  0.26130057  0.66405091    -1.09200
C1016       C  0.67663763  0.37453146  0.69969119     1.09000
O1017       O  0.75272805  0.36518027  0.64744032    -0.75800
O1018       O  0.74238941  0.34799494  0.68625723    -0.63300
Ni1019     Ni  0.59961655  0.21919227  0.65717067     1.34900
C1020       C  0.72432051  0.31852122  0.69660706     0.87800
O1021       O  0.67396385  0.25515814  0.62724223    -0.76300
O1022       O  0.62109128  0.20359676  0.63656835    -0.86600
C1023       C  0.74183218  0.35654911  0.62956043     0.87300
O1024       O  0.58408230  0.24443323  0.63863993    -0.64800
O1025       O  0.70640334  0.39022412  0.68974454    -0.84100
C1026       C  0.60152214  0.27425823  0.62847163     0.88200
C1027       C  0.65003300  0.21989826  0.62603206     1.09700
H1028       H  0.66565420  0.34493095  0.65549406     0.41500
O1029       O  0.67941810  0.33369027  0.66135595    -1.06700
O1030       O  0.68909970  0.29878844  0.69620905    -0.63400
Ni1031     Ni  0.64925809  0.29979016  0.68139529     1.26300
O1032       O  0.63660223  0.29562764  0.62937853    -0.63600
O1033       O  0.65190281  0.33966004  0.69795426    -0.75900
C1034       C  0.58461418  0.23827236  0.69556565     0.87500
O1035       O  0.61728543  0.26384501  0.70011058    -0.63100
Ni1036     Ni  0.72734445  0.37503876  0.66856348     1.27400
Ni1037     Ni  0.67701892  0.29512203  0.64391975     1.26100
H1038       H  0.66135290  0.25047209  0.66991377     0.42100
C1039       C  0.87134309  0.29409183  0.40699609     0.83200
N1040       N  0.90008670  0.31814444  0.41889605    -0.75100
C1041       C  0.89643738  0.34292388  0.43100442     0.85700
N1042       N  0.86393672  0.34375257  0.43115495    -0.75000
C1043       C  0.83512278  0.31965829  0.41920172     0.85800
N1044       N  0.83892053  0.29492295  0.40711146    -0.76700
C1045       C  0.00650086  0.15636657  0.40062748     0.83200
N1046       N  0.00109665  0.12641760  0.41210931    -0.75100
C1047       C  0.52981617  0.12840993  0.42320493     0.85700
N1048       N  0.56360036  0.16030976  0.42286367    -0.75000
C1049       C  0.56901315  0.19010572  0.41144821     0.85800
N1050       N  0.54046529  0.18812224  0.40038360    -0.76700
C1051       C  0.66664641  0.48791928  0.42060035     0.83200
N1052       N  0.67025879  0.45624271  0.42138616    -0.75100
C1053       C  0.69753506  0.45457923  0.41127132     0.85700
N1054       N  0.72125085  0.48462272  0.40036671    -0.75000
C1055       C  0.71787183  0.51638639  0.39955763     0.85800
N1056       N  0.69051065  0.51813671  0.40966833    -0.76700
C1057       C  0.73710889  0.32140590  0.41584268     0.06200
C1058       C  0.70329677  0.28708487  0.41460986    -0.10000
C1059       C  0.66970126  0.28759163  0.41250548     0.03700
C1060       C  0.66999229  0.32240667  0.41160310    -0.08500
C1061       C  0.70362631  0.35668759  0.41290186     0.06200
C1062       C  0.73720349  0.35620197  0.41498017    -0.07900
H1063       H  0.70312305  0.26014525  0.41533511     0.11700
H1064       H  0.64402592  0.32282647  0.41006114     0.09300
H1065       H  0.76325925  0.38275743  0.41596881     0.09100
O1066       O  0.52965350  0.39143213  0.51240816    -0.77900
O1067       O  0.52686568  0.02207660  0.45987872    -0.62600
O1068       O  0.54494459  0.46312111  0.49821787    -1.09200
C1069       C  0.95119258  0.46785756  0.53420500     1.09000
O1070       O  0.51222868  0.05561222  0.48059597    -0.75800
O1071       O  0.54049624  0.04771279  0.51594440    -0.63300
Ni1072     Ni  0.54753350  0.41966154  0.48837486     1.34900
C1073       C  0.55124292  0.03154938  0.52839958     0.87800
O1074       O  0.57886395  0.50183513  0.46393606    -0.76300
O1075       O  0.56893199  0.44240493  0.46341093    -0.86600
C1076       C  0.52042009  0.04913312  0.46352284     0.87300
O1077       O  0.99836797  0.39728418  0.47755809    -0.64800
O1078       O  0.96846314  0.00228882  0.52864330    -0.84100
C1079       C  0.98680977  0.41286691  0.46516751     0.88200
C1080       C  0.58582333  0.47653722  0.45747917     1.09700
H1081       H  0.97115290  0.46652413  0.48725116     0.41500
O1082       O  0.49409885  0.48258163  0.49437370    -1.06700
O1083       O  0.53456410  0.99561188  0.53081963    -0.63400
Ni1084     Ni  0.50235106  0.45283625  0.51369530     1.26300
O1085       O  0.00334473  0.44867251  0.46222535    -0.63600
O1086       O  0.95902616  0.44294505  0.52807165    -0.75900
C1087       C  0.51922832  0.39663016  0.52912295     0.87500
O1088       O  0.51065360  0.42228075  0.53244443    -0.63100
Ni1089     Ni  0.49208373  0.02628148  0.50421452     1.27400
Ni1090     Ni  0.53611237  0.49229656  0.47872339     1.26100
H1091       H  0.56775849  0.47947207  0.50537671     0.42100
C1092       C  0.87714501  0.50635648  0.25488197     0.83200
N1093       N  0.85041676  0.48008664  0.24263158    -0.75100
C1094       C  0.85733207  0.45534038  0.23230866     0.85700
N1095       N  0.89063795  0.45671618  0.23435785    -0.75000
C1096       C  0.91718657  0.48275104  0.24660587     0.85800
N1097       N  0.91045861  0.50756534  0.25690147    -0.76700
C1098       C  0.72202175  0.17950522  0.23817195     0.83200
N1099       N  0.68807482  0.14774213  0.23774260    -0.75100
C1100       C  0.68205907  0.11711130  0.24861660     0.85700
N1101       N  0.70995495  0.11818265  0.25984220    -0.75000
C1102       C  0.74390711  0.14980095  0.26030076     0.85800
N1103       N  0.75005987  0.18054363  0.24941240    -0.76700
C1104       C  0.52920929  0.28608148  0.26088753     0.83200
N1105       N  0.55347381  0.28197188  0.24912725    -0.75100
C1106       C  0.57786192  0.31174721  0.23811270     0.85700
N1107       N  0.57778183  0.34536525  0.23883529    -0.75000
C1108       C  0.55357923  0.34942106  0.25057507     0.85800
N1109       N  0.52932085  0.31976824  0.26155749    -0.76700
C1110       C  0.51597814  0.48333636  0.25012631     0.06200
C1111       C  0.54921318  0.51794249  0.24920373    -0.10000
C1112       C  0.58324884  0.51831587  0.24905619     0.03700
C1113       C  0.58409405  0.48403553  0.24980147    -0.08500
C1114       C  0.55088544  0.44932669  0.25070255     0.06200
C1115       C  0.51678080  0.44899406  0.25089940    -0.07900
H1116       H  0.54858706  0.04449041  0.24854655     0.11700
H1117       H  0.61049953  0.48436913  0.24963284     0.09300
H1118       H  0.99101568  0.42216692  0.25148352     0.09100
O1119       O  0.81449703  0.34627489  0.14720244    -0.77900
O1120       O  0.68098198  0.31745789  0.20110259    -0.62600
O1121       O  0.74118594  0.30709056  0.16187908    -1.09200
C1122       C  0.71305443  0.39119712  0.12608181     1.09000
O1123       O  0.63699524  0.30893353  0.17931605    -0.75800
O1124       O  0.64633307  0.29884665  0.14081263    -0.63300
Ni1125     Ni  0.78890120  0.31294531  0.16889119     1.34900
C1126       C  0.66387501  0.28706590  0.13029783     0.87800
O1127       O  0.71395224  0.27494152  0.19877852    -0.76300
O1128       O  0.76834931  0.27877350  0.19077311    -0.86600
C1129       C  0.64854664  0.31149922  0.19704663     0.87300
O1130       O  0.80516768  0.35654332  0.18565823    -0.64800
O1131       O  0.68319297  0.37709534  0.13591837    -0.84100
C1132       C  0.78766754  0.36832614  0.19618755     0.88200
C1133       C  0.73881422  0.26524130  0.20083802     1.09700
H1134       H  0.72439713  0.37356838  0.17048186     0.41500
O1135       O  0.71017634  0.34843914  0.16468737    -1.06700
O1136       O  0.69906455  0.30282296  0.13006451    -0.63400
Ni1137     Ni  0.73967735  0.34369080  0.14453228     1.26300
O1138       O  0.75250631  0.35282665  0.19639560    -0.63600
O1139       O  0.73772598  0.38116665  0.12798494    -0.75900
C1140       C  0.80303251  0.34446489  0.12951496     0.87500
O1141       O  0.77058892  0.33850610  0.12550934    -0.63100
Ni1142     Ni  0.66245774  0.34244094  0.15765262     1.27400
Ni1143     Ni  0.71176798  0.31199411  0.18207100     1.26100
H1144       H  0.72688458  0.28197065  0.15608488     0.42100
O1145       O  0.78306914  0.08427901  0.34377734    -0.77900
O1146       O  0.92130366  0.18633827  0.29351487    -0.62600
O1147       O  0.85656917  0.11410915  0.33073182    -1.09200
C1148       C  0.88651411  0.22564602  0.36832976     1.09000
O1149       O  0.96380142  0.21756287  0.31681847    -0.75800
O1150       O  0.95194087  0.20080003  0.35552706    -0.63300
Ni1151     Ni  0.80841119  0.07415079  0.32283257     1.34900
C1152       C  0.93396185  0.17002386  0.36490182     0.87800
O1153       O  0.88441631  0.11006096  0.29394055    -0.76300
O1154       O  0.82936317  0.05944765  0.30153922    -0.86600
C1155       C  0.95398069  0.21107848  0.29872567     0.87300
O1156       O  0.79504245  0.10269412  0.30545264    -0.64800
O1157       O  0.91576827  0.24248143  0.35806029    -0.84100
C1158       C  0.81389968  0.13284264  0.29578200     0.88200
C1159       C  0.85916746  0.07546150  0.29164200     1.09700
H1160       H  0.87658202  0.19829674  0.32406371     0.41500
O1161       O  0.89019700  0.18664862  0.32963928    -1.06700
O1162       O  0.89886262  0.14889230  0.36345177    -0.63400
Ni1163     Ni  0.85933186  0.15158991  0.34904726     1.26300
O1164       O  0.84910634  0.15237973  0.29674048    -0.63600
O1165       O  0.86258657  0.19047973  0.36661163    -0.75900
C1166       C  0.79310732  0.09063392  0.36183602     0.87500
O1167       O  0.82614796  0.11442529  0.36698543    -0.63100
Ni1168     Ni  0.93775350  0.22772457  0.33735388     1.27400
Ni1169     Ni  0.88787626  0.14918014  0.31142293     1.26100
H1170       H  0.86965797  0.10188676  0.33628900     0.42100
C1171       C  0.55291154  0.38471109  0.25099086    -0.10200
C1172       C  0.55189528  0.41411019  0.25105505    -0.11800
C1173       C  0.00328411  0.25521170  0.27279636    -0.10200
C1174       C  0.98070337  0.23282297  0.28400162    -0.11800
C1175       C  0.62389583  0.30757302  0.21279980    -0.10200
C1176       C  0.60285488  0.30767535  0.22499245    -0.11800
C1177       C  0.61737436  0.05390577  0.24829223    -0.10200
C1178       C  0.64648184  0.08326017  0.24811459    -0.11800
C1179       C  0.72843243  0.21133535  0.22612530    -0.10200
C1180       C  0.73311454  0.23667764  0.21509104    -0.11800
C1181       C  0.77300576  0.14989341  0.27220922    -0.10200
C1182       C  0.79383046  0.14477166  0.28280985    -0.11800
C1183       C  0.98111420  0.48323388  0.24974992    -0.10200
C1184       C  0.95211129  0.48351097  0.24873795    -0.11800
C1185       C  0.82946539  0.42669391  0.21962273    -0.10200
C1186       C  0.80903743  0.40067470  0.20885829    -0.11800
C1187       C  0.86484165  0.05250545  0.27735923    -0.10200
C1188       C  0.86985893  0.03179543  0.26646574    -0.11800
C1189       C  0.70114154  0.42096038  0.41195231    -0.10200
C1190       C  0.70326566  0.39219672  0.41236889    -0.11800
C1191       C  0.76612957  0.06973366  0.37656196    -0.10200
C1192       C  0.74331810  0.04755096  0.38771099    -0.11800
C1193       C  0.63812821  0.48932587  0.43193035    -0.10200
C1194       C  0.61393872  0.48607020  0.44288983    -0.11800
C1195       C  0.60482077  0.22393689  0.41135434    -0.10200
C1196       C  0.63471199  0.25256867  0.41167663    -0.11800
C1197       C  0.95503990  0.15930134  0.37806324    -0.10200
C1198       C  0.97663099  0.15525423  0.38872910    -0.11800
C1199       C  0.52268479  0.07429921  0.44781978    -0.10200
C1200       C  0.52471072  0.09759354  0.43592913    -0.11800
C1201       C  0.80080419  0.32069776  0.41892657    -0.10200
C1202       C  0.77174031  0.32099406  0.41782839    -0.11800
C1203       C  0.87562634  0.26849673  0.39392949    -0.10200
C1204       C  0.88010058  0.24811409  0.38255340    -0.11800
C1205       C  0.92723852  0.36833063  0.44346603    -0.10200
C1206       C  0.95413678  0.38890593  0.45351229    -0.11800
C1207       C  0.83385675  0.02344827  0.57638684    -0.10200
C1208       C  0.83273268  0.05275792  0.57620190    -0.11800
C1209       C  0.76774198  0.37648776  0.61412128    -0.10200
C1210       C  0.78973806  0.39752584  0.60222202    -0.11800
C1211       C  0.92136588  0.45737472  0.54789693    -0.10200
C1212       C  0.89581905  0.45327043  0.55806005    -0.11800
C1213       C  0.93185403  0.22088453  0.57942490    -0.10200
C1214       C  0.90191278  0.19240294  0.57877435    -0.11800
C1215       C  0.55874693  0.28750872  0.60396530    -0.10200
C1216       C  0.57997919  0.28367441  0.61498168    -0.11800
C1217       C  0.51678823  0.37148002  0.54481127    -0.10200
C1218       C  0.51422644  0.34781498  0.55655848    -0.11800
C1219       C  0.73572273  0.12484214  0.57560707    -0.10200
C1220       C  0.76482740  0.12463255  0.57588897    -0.11800
C1221       C  0.66005461  0.17594656  0.60073080    -0.10200
C1222       C  0.65594644  0.19670745  0.61202624    -0.11800
C1223       C  0.58308999  0.05507204  0.54072023    -0.10200
C1224       C  0.60934331  0.07576999  0.55114184    -0.11800
C1225       C  0.98963123  0.07212750  0.75070708    -0.10200
C1226       C  0.48975616  0.04232854  0.74991799    -0.11800
C1227       C  0.53791026  0.19722546  0.72319703    -0.10200
C1228       C  0.55901032  0.21784221  0.71092626    -0.11800
C1229       C  0.92170119  0.15995968  0.78293952    -0.10200
C1230       C  0.94230582  0.15437390  0.77274026    -0.11800
C1231       C  0.55864034  0.47183676  0.74467587    -0.10200
C1232       C  0.58754137  0.47124396  0.74487242    -0.11800
C1233       C  0.71201143  0.02267767  0.77180559    -0.10200
C1234       C  0.73562239  0.04384557  0.78340625    -0.11800
C1235       C  0.66535706  0.41910689  0.72404061    -0.10200
C1236       C  0.67039301  0.39805606  0.71338723    -0.11800
C1237       C  0.89309743  0.37328259  0.74320485    -0.10200
C1238       C  0.92207929  0.40279238  0.74378207    -0.11800
C1239       C  0.81847414  0.24421419  0.76503273    -0.10200
C1240       C  0.82266388  0.22351110  0.77646575    -0.11800
C1241       C  0.76608357  0.30204272  0.72018250    -0.10200
C1242       C  0.74516598  0.30731651  0.70962754    -0.11800
C1243       C  0.94610960  0.23533012  0.87568743    -0.10200
C1244       C  0.97051678  0.25675671  0.88691512    -0.11800
C1245       C  0.52614056  0.36443723  0.93290696    -0.10200
C1246       C  0.53001512  0.38960075  0.94408164    -0.11800
C1247       C  0.62682442  0.30714276  0.91075393    -0.10200
C1248       C  0.59773773  0.30738863  0.91002887    -0.11800
C1249       C  0.69440661  0.23521282  0.91462296    -0.10200
C1250       C  0.69458247  0.20542182  0.91486364    -0.11800
C1251       C  0.74184276  0.12583362  0.88906889    -0.10200
C1252       C  0.76116045  0.12039338  0.87779184    -0.11800
C1253       C  0.64806415  0.07770633  0.93947287    -0.10200
C1254       C  0.62805189  0.05213140  0.95017928    -0.11800
C1255       C  0.79303318  0.40438673  0.91577248    -0.10200
C1256       C  0.76378142  0.37506690  0.91549002    -0.11800
C1257       C  0.86197577  0.03360102  0.89325545    -0.10200
C1258       C  0.85717963  0.05451675  0.88232711    -0.11800
C1259       C  0.94542312  0.48537694  0.94842571    -0.10200
C1260       C  0.92123504  0.48247834  0.93710122    -0.11800
C1261       C  0.83074424  0.10635026  0.07946481    -0.10200
C1262       C  0.80167611  0.07681713  0.07986005    -0.11800
C1263       C  0.71945171  0.42100708  0.11241667    -0.10200
C1264       C  0.72417303  0.44721281  0.10197217    -0.11800
C1265       C  0.67477630  0.50366053  0.05583514    -0.10200
C1266       C  0.65094755  0.50089416  0.04432001    -0.11800
C1267       C  0.89953052  0.24620118  0.07342846    -0.10200
C1268       C  0.89952965  0.27611575  0.07287562    -0.11800
C1269       C  0.84896200  0.35035667  0.10125018    -0.10200
C1270       C  0.82787903  0.34941989  0.11370413    -0.11800
C1271       C  0.94560379  0.40654927  0.05214553    -0.10200
C1272       C  0.96619631  0.43292491  0.04197407    -0.11800
C1273       C  0.96744225  0.17505554  0.08042760    -0.10200
C1274       C  0.99633083  0.17456362  0.08158100    -0.11800
C1275       C  0.62146408  0.22808016  0.10720088    -0.10200
C1276       C  0.64248457  0.25438029  0.11771783    -0.11800
C1277       C  0.57111548  0.11986478  0.06096927    -0.10200
C1278       C  0.56714833  0.09507976  0.04948618    -0.11800
C1279       C  0.56766139  0.64756009  0.07289306     0.83200
N1280       N  0.59633393  0.67351450  0.08440682    -0.75100
C1281       C  0.59183509  0.69959660  0.09513527     0.85700
N1282       N  0.55907131  0.69970630  0.09421713    -0.75000
C1283       C  0.03070367  0.67394773  0.08273898     0.85800
N1284       N  0.53504644  0.64799102  0.07209072    -0.76700
C1285       C  0.92092377  0.87461265  0.06394483     0.83200
N1286       N  0.92165130  0.84134402  0.06262403    -0.75100
C1287       C  0.89843309  0.81117290  0.07372591     0.85700
N1288       N  0.87464471  0.81434495  0.08617052    -0.75000
C1289       C  0.87378323  0.84745083  0.08753906     0.85800
N1290       N  0.89699930  0.87768345  0.07644730    -0.76700
C1291       C  0.72906694  0.97905652  0.09025567     0.83200
N1292       N  0.70033637  0.97650320  0.07907805    -0.75100
C1293       C  0.70470231  0.00668840  0.06824689     0.85700
N1294       N  0.73788071  0.53936149  0.06853523    -0.75000
C1295       C  0.76661408  0.54205813  0.07971887     0.85800
N1296       N  0.76220763  0.01188735  0.09058811    -0.76700
C1297       C  0.86541409  0.64162421  0.07858161     0.06200
C1298       C  0.89913607  0.64132569  0.07994485    -0.10000
C1299       C  0.93287807  0.67547333  0.07895993     0.03700
C1300       C  0.93295459  0.71000758  0.07659276    -0.08500
C1301       C  0.89931080  0.71047164  0.07523917     0.06200
C1302       C  0.86553071  0.67624283  0.07624066    -0.07900
H1303       H  0.89912475  0.61461056  0.08175906     0.11700
H1304       H  0.95909898  0.73644102  0.07592081     0.09300
H1305       H  0.83946249  0.67655837  0.07527087     0.09100
C1306       C  0.86107713  0.50315727  0.90474401     0.83200
N1307       N  0.82908020  0.96934772  0.90506561    -0.75100
C1308       C  0.82726003  0.93988566  0.91549098     0.85700
N1309       N  0.85761129  0.94416856  0.92568311    -0.75000
C1310       C  0.88983252  0.97790258  0.92540562     0.85800
N1311       N  0.89158130  0.50755240  0.91495589    -0.76700
C1312       C  0.71810710  0.63144951  0.90236221     0.83200
N1313       N  0.69526976  0.60292407  0.91444351    -0.75100
C1314       C  0.67232285  0.60796937  0.92674534     0.85700
N1315       N  0.67219025  0.64155292  0.92693565    -0.75000
C1316       C  0.69501879  0.67007389  0.91485808     0.85800
N1317       N  0.71793980  0.66500253  0.90256529    -0.76700
C1318       C  0.69464221  0.77099603  0.91416599     0.06200
C1319       C  0.66114346  0.77172255  0.91261998    -0.10000
C1320       C  0.66140528  0.80658263  0.91212662     0.03700
C1321       C  0.69530145  0.84077288  0.91317370    -0.08500
C1322       C  0.72885542  0.84005625  0.91468956     0.06200
C1323       C  0.72845425  0.80514939  0.91518908    -0.07900
H1324       H  0.63496971  0.74525971  0.91183111     0.11700
H1325       H  0.69556939  0.86778362  0.91279182     0.09300
H1326       H  0.75438153  0.80456161  0.91632153     0.09100
C1327       C  0.52822950  0.83596778  0.92096289     0.83200
N1328       N  0.56051298  0.83485491  0.92085721    -0.75100
C1329       C  0.56339141  0.80829503  0.90988917     0.85700
N1330       N  0.53380980  0.78261216  0.89896147    -0.75000
C1331       C  0.50134097  0.78346879  0.89903578     0.85800
N1332       N  0.49853217  0.81024631  0.91002738    -0.76700
O1333       O  0.96576242  0.99738490  0.98111906    -0.77900
O1334       O  0.59613519  0.99896933  0.03322267    -0.62600
O1335       O  0.53891314  0.51869665  0.99482943    -1.09200
C1336       C  0.54106862  0.91962848  0.95854873     1.09000
O1337       O  0.63136535  0.99051038  0.01149168    -0.75800
O1338       O  0.62079031  0.50883258  0.97454435    -0.63300
Ni1339     Ni  0.99744219  0.52395450  0.00355093     1.34900
C1340       C  0.60503689  0.52144134  0.96300924     0.87800
O1341       O  0.57735229  0.55275833  0.03034206    -0.76300
O1342       O  0.52397307  0.55372160  0.02656426    -0.86600
C1343       C  0.62457670  0.99639909  0.02898818     0.87300
O1344       O  0.97514664  0.97789168  0.01818674    -0.64800
O1345       O  0.57325812  0.93259353  0.96635605    -0.84100
C1346       C  0.99008744  0.96403177  0.02950658     0.88200
C1347       C  0.55573429  0.56552948  0.03468543     1.09700
H1348       H  0.54124942  0.94315554  0.00470242     0.41500
O1349       O  0.55744736  0.96655681  0.99803198    -1.06700
O1350       O  0.57004215  0.50817571  0.96206783    -0.63400
Ni1351     Ni  0.52862036  0.97546453  0.97848164     1.26300
O1352       O  0.52495461  0.97618623  0.03045343    -0.63600
O1353       O  0.51877282  0.93159004  0.96296782    -0.75900
C1354       C  0.97167182  0.98956548  0.96381995     0.87500
O1355       O  0.99903138  0.98489936  0.95979009    -0.63100
Ni1356     Ni  0.59971508  0.96289668  0.98923074     1.27400
Ni1357     Ni  0.56721961  0.00921855  0.01452684     1.26100
H1358       H  0.55554038  0.54189041  0.98812428     0.42100
C1359       C  0.82149309  0.77523646  0.75311925     0.83200
N1360       N  0.85444395  0.80815505  0.75324973    -0.75100
C1361       C  0.85839021  0.83839365  0.74274370     0.85700
N1362       N  0.82931270  0.83587808  0.73207177    -0.75000
C1363       C  0.79619955  0.80317561  0.73178223     0.85800
N1364       N  0.79209666  0.77262276  0.74237613    -0.76700
C1365       C  0.65981882  0.94540879  0.73597707     0.83200
N1366       N  0.68771820  0.97078541  0.74795229    -0.75100
C1367       C  0.68284024  0.99626093  0.75884996     0.85700
N1368       N  0.65005301  0.49629832  0.75780782    -0.75000
C1369       C  0.62217179  0.97103191  0.74583070     0.85800
N1370       N  0.62703927  0.94557443  0.73490183    -0.76700
C1371       C  0.51364765  0.66901031  0.73680382     0.83200
N1372       N  0.51342835  0.63534308  0.73781106    -0.75100
C1373       C  0.99024060  0.60799071  0.75026738     0.85700
N1374       N  0.96700184  0.61421703  0.76172467    -0.75000
C1375       C  0.96712797  0.64791783  0.76073348     0.85800
N1376       N  0.99043488  0.67533179  0.74823998    -0.76700
C1377       C  0.52400169  0.47223701  0.74508798     0.06200
C1378       C  0.49035590  0.93793730  0.74386042    -0.10000
C1379       C  0.95658325  0.93808426  0.74474548     0.03700
C1380       C  0.95642052  0.47256114  0.74682056    -0.08500
C1381       C  0.49002605  0.50690912  0.74804402     0.06200
C1382       C  0.52383460  0.50674901  0.74715314    -0.07900
H1383       H  0.49045469  0.91120782  0.74235652     0.11700
H1384       H  0.93025058  0.47265562  0.74749704     0.09300
H1385       H  0.54987298  0.53332816  0.74811554     0.09100
O1386       O  0.92551695  0.72238372  0.84296017    -0.77900
O1387       O  0.79236840  0.59569520  0.79329641    -0.62600
O1388       O  0.85052688  0.67490884  0.83056209    -1.09200
C1389       C  0.84572029  0.57320882  0.86800063     1.09000
O1390       O  0.75486699  0.55759450  0.81628372    -0.75800
O1391       O  0.76747954  0.58238398  0.85414149    -0.63300
Ni1392     Ni  0.89259125  0.72125853  0.82208711     1.34900
C1393       C  0.78344097  0.61264588  0.86446524     0.87800
O1394       O  0.81440175  0.66981314  0.79400434    -0.76300
O1395       O  0.86424272  0.72668333  0.80074118    -0.86600
C1396       C  0.76248921  0.56673015  0.79831532     0.87300
O1397       O  0.91279713  0.69854912  0.80504761    -0.64800
O1398       O  0.81460822  0.55275352  0.85919004    -0.84100
C1399       C  0.89811474  0.66743248  0.79541074     0.88200
C1400       C  0.83421526  0.70542367  0.79120263     1.09700
H1401       H  0.84577832  0.59570999  0.82278216     0.41500
O1402       O  0.82973477  0.60375370  0.82890768    -1.06700
O1403       O  0.81800326  0.63623334  0.86384771    -0.63400
Ni1404     Ni  0.85901004  0.64238688  0.84799263     1.26300
O1405       O  0.86392165  0.64257627  0.79619667    -0.63600
O1406       O  0.86685582  0.60844691  0.86468085    -0.75900
C1407       C  0.91876671  0.71243678  0.86088192     0.87500
O1408       O  0.88943867  0.68283740  0.86592823    -0.63100
Ni1409     Ni  0.78693394  0.55831577  0.83753063     1.27400
Ni1410     Ni  0.82197117  0.63627494  0.81124364     1.26100
H1411       H  0.83395305  0.68215017  0.83676665     0.42100
C1412       C  0.66447462  0.65030512  0.58773847     0.83200
N1413       N  0.69709364  0.64986456  0.58763805    -0.75100
C1414       C  0.70116074  0.62527259  0.57557625     0.85700
N1415       N  0.67250361  0.60099183  0.56362551    -0.75000
C1416       C  0.63981246  0.60137316  0.56374471     0.85800
N1417       N  0.63583465  0.62602841  0.57581478    -0.76700
C1418       C  0.52976380  0.78704015  0.59161646     0.83200
N1419       N  0.53612125  0.81755512  0.58038183    -0.75100
C1420       C  0.50814246  0.81637162  0.56896512     0.85700
N1421       N  0.47415057  0.78474155  0.56873085    -0.75000
C1422       C  0.96782372  0.75438424  0.57990071     0.85800
N1423       N  0.49561801  0.75553702  0.59130560    -0.76700
C1424       C  0.86648272  0.95476434  0.56862794     0.83200
N1425       N  0.84223901  0.92508151  0.57979607    -0.75100
C1426       C  0.81492820  0.92760240  0.58960547     0.85700
N1427       N  0.81214780  0.45967951  0.58830672    -0.75000
C1428       C  0.83623747  0.48914818  0.57718618     0.85800
N1429       N  0.86339514  0.48669235  0.56740427    -0.76700
C1430       C  0.79942066  0.62404188  0.57636131     0.06200
C1431       C  0.83332456  0.65823478  0.57731921    -0.10000
C1432       C  0.86691656  0.65750763  0.57782068     0.03700
C1433       C  0.86655579  0.62261956  0.57735894    -0.08500
C1434       C  0.83275878  0.58846152  0.57642428     0.06200
C1435       C  0.79918857  0.58917167  0.57593137    -0.07900
H1436       H  0.83356335  0.68523549  0.57767567     0.11700
H1437       H  0.89253464  0.62204898  0.57776740     0.09300
H1438       H  0.77300455  0.56271152  0.57525337     0.09100
O1439       O  0.57390209  0.72995921  0.67766998    -0.77900
O1440       O  0.70894838  0.83115768  0.62511554    -0.62600
O1441       O  0.64721953  0.76130062  0.66405090    -1.09200
C1442       C  0.67663762  0.87453146  0.69969120     1.09000
O1443       O  0.75272806  0.86518036  0.64744031    -0.75800
O1444       O  0.74238942  0.84799495  0.68625721    -0.63300
Ni1445     Ni  0.59961655  0.71919232  0.65717066     1.34900
C1446       C  0.72432051  0.81852123  0.69660705     0.87800
O1447       O  0.67396387  0.75515821  0.62724222    -0.76300
O1448       O  0.62109129  0.70359684  0.63656833    -0.86600
C1449       C  0.74183219  0.85654918  0.62956043     0.87300
O1450       O  0.58408231  0.74443330  0.63863992    -0.64800
O1451       O  0.70640334  0.89022413  0.68974456    -0.84100
C1452       C  0.60152215  0.77425831  0.62847163     0.88200
C1453       C  0.65003301  0.71989833  0.62603204     1.09700
H1454       H  0.66565421  0.84493100  0.65549406     0.41500
O1455       O  0.67941810  0.83369032  0.66135595    -1.06700
O1456       O  0.68909971  0.79878847  0.69620905    -0.63400
Ni1457     Ni  0.64925809  0.79979019  0.68139528     1.26300
O1458       O  0.63660224  0.79562771  0.62937852    -0.63600
O1459       O  0.65190280  0.83966006  0.69795426    -0.75900
C1460       C  0.58461418  0.73827239  0.69556564     0.87500
O1461       O  0.61728543  0.76384503  0.70011056    -0.63100
Ni1462     Ni  0.72734446  0.87503880  0.66856349     1.27400
Ni1463     Ni  0.67701893  0.79512209  0.64391974     1.26100
H1464       H  0.66135290  0.75047213  0.66991376     0.42100
C1465       C  0.87134308  0.79409185  0.40699609     0.83200
N1466       N  0.90008669  0.81814446  0.41889604    -0.75100
C1467       C  0.89643738  0.84292390  0.43100442     0.85700
N1468       N  0.86393671  0.84375259  0.43115495    -0.75000
C1469       C  0.83512277  0.81965830  0.41920173     0.85800
N1470       N  0.83892052  0.79492296  0.40711146    -0.76700
C1471       C  0.00650086  0.65636658  0.40062748     0.83200
N1472       N  0.00109664  0.62641761  0.41210932    -0.75100
C1473       C  0.52981615  0.62840992  0.42320494     0.85700
N1474       N  0.56360035  0.66030974  0.42286367    -0.75000
C1475       C  0.56901316  0.69010571  0.41144820     0.85800
N1476       N  0.54046531  0.68812223  0.40038360    -0.76700
C1477       C  0.66664648  0.98791934  0.42060038     0.83200
N1478       N  0.67025885  0.95624276  0.42138620    -0.75100
C1479       C  0.69753509  0.95457925  0.41127134     0.85700
N1480       N  0.72125086  0.98462272  0.40036671    -0.75000
C1481       C  0.71787185  0.01638640  0.39955763     0.85800
N1482       N  0.69051069  0.01813674  0.40966835    -0.76700
C1483       C  0.73710888  0.82140591  0.41584268     0.06200
C1484       C  0.70329677  0.78708488  0.41460986    -0.10000
C1485       C  0.66970126  0.78759162  0.41250548     0.03700
C1486       C  0.66999227  0.82240666  0.41160310    -0.08500
C1487       C  0.70362628  0.85668759  0.41290186     0.06200
C1488       C  0.73720347  0.85620197  0.41498017    -0.07900
H1489       H  0.70312306  0.76014526  0.41533511     0.11700
H1490       H  0.64402589  0.82282645  0.41006114     0.09300
H1491       H  0.76325922  0.88275744  0.41596882     0.09100
O1492       O  0.52965352  0.89143213  0.51240815    -0.77900
O1493       O  0.52686566  0.52207660  0.45987872    -0.62600
O1494       O  0.54494461  0.96312111  0.49821788    -1.09200
C1495       C  0.95119261  0.96785759  0.53420500     1.09000
O1496       O  0.51222858  0.55561216  0.48059596    -0.75800
O1497       O  0.54049618  0.54771280  0.51594439    -0.63300
Ni1498     Ni  0.54753352  0.91966155  0.48837485     1.34900
C1499       C  0.55124290  0.53154942  0.52839957     0.87800
O1500       O  0.57886398  0.00183515  0.46393607    -0.76300
O1501       O  0.56893200  0.94240495  0.46341092    -0.86600
C1502       C  0.52042003  0.54913309  0.46352284     0.87300
O1503       O  0.99836798  0.89728419  0.47755809    -0.64800
O1504       O  0.96846309  0.50228879  0.52864330    -0.84100
C1505       C  0.98680978  0.91286692  0.46516752     0.88200
C1506       C  0.58582336  0.97653725  0.45747918     1.09700
H1507       H  0.97115285  0.96652413  0.48725114     0.41500
O1508       O  0.49409889  0.98258166  0.49437370    -1.06700
O1509       O  0.53456410  0.49561192  0.53081962    -0.63400
Ni1510     Ni  0.50235106  0.95283625  0.51369529     1.26300
O1511       O  0.00334474  0.94867252  0.46222536    -0.63600
O1512       O  0.95902616  0.94294506  0.52807164    -0.75900
C1513       C  0.51922831  0.89663013  0.52912294     0.87500
O1514       O  0.51065357  0.92228071  0.53244442    -0.63100
Ni1515     Ni  0.49208366  0.52628144  0.50421451     1.27400
Ni1516     Ni  0.53611238  0.99229657  0.47872339     1.26100
H1517       H  0.56775846  0.97947204  0.50537670     0.42100
C1518       C  0.87714500  0.00635643  0.25488199     0.83200
N1519       N  0.85041674  0.98008659  0.24263160    -0.75100
C1520       C  0.85733206  0.95534033  0.23230868     0.85700
N1521       N  0.89063794  0.95671614  0.23435787    -0.75000
C1522       C  0.91718657  0.98275101  0.24660589     0.85800
N1523       N  0.91045861  0.00756531  0.25690148    -0.76700
C1524       C  0.72202173  0.67950523  0.23817196     0.83200
N1525       N  0.68807480  0.64774215  0.23774261    -0.75100
C1526       C  0.68205904  0.61711132  0.24861661     0.85700
N1527       N  0.70995491  0.61818266  0.25984220    -0.75000
C1528       C  0.74390708  0.64980095  0.26030076     0.85800
N1529       N  0.75005985  0.68054364  0.24941241    -0.76700
C1530       C  0.52920927  0.78608146  0.26088753     0.83200
N1531       N  0.55347378  0.78197185  0.24912723    -0.75100
C1532       C  0.57786188  0.81174719  0.23811268     0.85700
N1533       N  0.57778179  0.84536523  0.23883527    -0.75000
C1534       C  0.55357920  0.84942104  0.25057507     0.85800
N1535       N  0.52932083  0.81976822  0.26155750    -0.76700
C1536       C  0.51597815  0.98333637  0.25012634     0.06200
C1537       C  0.54921319  0.01794250  0.24920374    -0.10000
C1538       C  0.58324885  0.01831586  0.24905620     0.03700
C1539       C  0.58409405  0.98403551  0.24980148    -0.08500
C1540       C  0.55088544  0.94932668  0.25070257     0.06200
C1541       C  0.51678080  0.94899407  0.25089943    -0.07900
H1542       H  0.54858703  0.54449040  0.24854655     0.11700
H1543       H  0.61049952  0.98436910  0.24963284     0.09300
H1544       H  0.99101567  0.92216692  0.25148353     0.09100
O1545       O  0.81449705  0.84627490  0.14720244    -0.77900
O1546       O  0.68098196  0.81745788  0.20110258    -0.62600
O1547       O  0.74118595  0.80709058  0.16187908    -1.09200
C1548       C  0.71305440  0.89119711  0.12608181     1.09000
O1549       O  0.63699521  0.80893344  0.17931602    -0.75800
O1550       O  0.64633308  0.79884663  0.14081260    -0.63300
Ni1551     Ni  0.78890120  0.81294532  0.16889119     1.34900
C1552       C  0.66387504  0.78706589  0.13029781     0.87800
O1553       O  0.71395224  0.77494153  0.19877852    -0.76300
O1554       O  0.76834930  0.77877351  0.19077310    -0.86600
C1555       C  0.64854661  0.81149917  0.19704661     0.87300
O1556       O  0.80516768  0.85654332  0.18565824    -0.64800
O1557       O  0.68319294  0.87709532  0.13591837    -0.84100
C1558       C  0.78766753  0.86832613  0.19618755     0.88200
C1559       C  0.73881422  0.76524131  0.20083802     1.09700
H1560       H  0.72439712  0.87356841  0.17048187     0.41500
O1561       O  0.71017632  0.84843912  0.16468737    -1.06700
O1562       O  0.69906457  0.80282296  0.13006449    -0.63400
Ni1563     Ni  0.73967735  0.84369081  0.14453228     1.26300
O1564       O  0.75250630  0.85282665  0.19639560    -0.63600
O1565       O  0.73772596  0.88116665  0.12798494    -0.75900
C1566       C  0.80303253  0.84446492  0.12951496     0.87500
O1567       O  0.77058895  0.83850614  0.12550934    -0.63100
Ni1568     Ni  0.66245771  0.84244089  0.15765261     1.27400
Ni1569     Ni  0.71176797  0.81199411  0.18207100     1.26100
H1570       H  0.72688460  0.78197066  0.15608488     0.42100
O1571       O  0.78306914  0.58427897  0.34377735    -0.77900
O1572       O  0.92130365  0.68633829  0.29351487    -0.62600
O1573       O  0.85656917  0.61410916  0.33073182    -1.09200
C1574       C  0.88651411  0.72564603  0.36832976     1.09000
O1575       O  0.96380142  0.71756285  0.31681847    -0.75800
O1576       O  0.95194087  0.70080004  0.35552707    -0.63300
Ni1577     Ni  0.80841119  0.57415079  0.32283256     1.34900
C1578       C  0.93396186  0.67002387  0.36490182     0.87800
O1579       O  0.88441632  0.61006099  0.29394054    -0.76300
O1580       O  0.82936316  0.55944768  0.30153921    -0.86600
C1581       C  0.95398069  0.71107847  0.29872568     0.87300
O1582       O  0.79504243  0.60269414  0.30545265    -0.64800
O1583       O  0.91576827  0.74248144  0.35806028    -0.84100
C1584       C  0.81389966  0.63284266  0.29578201     0.88200
C1585       C  0.85916746  0.57546153  0.29164199     1.09700
H1586       H  0.87658199  0.69829676  0.32406371     0.41500
O1587       O  0.89019700  0.68664863  0.32963929    -1.06700
O1588       O  0.89886262  0.64889230  0.36345177    -0.63400
Ni1589     Ni  0.85933187  0.65158992  0.34904726     1.26300
O1590       O  0.84910632  0.65237974  0.29674049    -0.63600
O1591       O  0.86258658  0.69047974  0.36661164    -0.75900
C1592       C  0.79310733  0.59063391  0.36183603     0.87500
O1593       O  0.82614797  0.61442529  0.36698544    -0.63100
Ni1594     Ni  0.93775350  0.72772457  0.33735388     1.27400
Ni1595     Ni  0.88787626  0.64918016  0.31142293     1.26100
H1596       H  0.86965796  0.60188678  0.33628899     0.42100
C1597       C  0.55291152  0.88471106  0.25099087    -0.10200
C1598       C  0.55189526  0.91411017  0.25105507    -0.11800
C1599       C  0.00328414  0.75521167  0.27279637    -0.10200
C1600       C  0.98070338  0.73282294  0.28400163    -0.11800
C1601       C  0.62389579  0.80757299  0.21279977    -0.10200
C1602       C  0.60285483  0.80767533  0.22499242    -0.11800
C1603       C  0.61737433  0.55390579  0.24829224    -0.10200
C1604       C  0.64648181  0.58326019  0.24811459    -0.11800
C1605       C  0.72843241  0.71133536  0.22612530    -0.10200
C1606       C  0.73311453  0.73667765  0.21509104    -0.11800
C1607       C  0.77300573  0.64989341  0.27220923    -0.10200
C1608       C  0.79383043  0.64477167  0.28280986    -0.11800
C1609       C  0.98111422  0.98323390  0.24974993    -0.10200
C1610       C  0.95211130  0.98351097  0.24873795    -0.11800
C1611       C  0.82946539  0.92669387  0.21962275    -0.10200
C1612       C  0.80903742  0.90067467  0.20885831    -0.11800
C1613       C  0.86484166  0.55250549  0.27735922    -0.10200
C1614       C  0.86985894  0.53179547  0.26646572    -0.11800
C1615       C  0.70114154  0.92096039  0.41195233    -0.10200
C1616       C  0.70326563  0.89219672  0.41236891    -0.11800
C1617       C  0.76612958  0.56973368  0.37656198    -0.10200
C1618       C  0.74331811  0.54755098  0.38771101    -0.11800
C1619       C  0.63812828  0.98932594  0.43193039    -0.10200
C1620       C  0.61393878  0.98607025  0.44288986    -0.11800
C1621       C  0.60482078  0.72393686  0.41135434    -0.10200
C1622       C  0.63471199  0.75256865  0.41167662    -0.11800
C1623       C  0.95503991  0.65930135  0.37806324    -0.10200
C1624       C  0.97663100  0.65525424  0.38872910    -0.11800
C1625       C  0.52268474  0.57429918  0.44781978    -0.10200
C1626       C  0.52471069  0.59759353  0.43592914    -0.11800
C1627       C  0.80080419  0.82069777  0.41892658    -0.10200
C1628       C  0.77174030  0.82099408  0.41782839    -0.11800
C1629       C  0.87562634  0.76849675  0.39392948    -0.10200
C1630       C  0.88010058  0.74811410  0.38255340    -0.11800
C1631       C  0.92723851  0.86833064  0.44346603    -0.10200
C1632       C  0.95413678  0.88890594  0.45351229    -0.11800
C1633       C  0.83385674  0.52344824  0.57638685    -0.10200
C1634       C  0.83273267  0.55275789  0.57620190    -0.11800
C1635       C  0.76774200  0.87648781  0.61412128    -0.10200
C1636       C  0.78973810  0.89752588  0.60222202    -0.11800
C1637       C  0.92136592  0.95737477  0.54789693    -0.10200
C1638       C  0.89581910  0.95327049  0.55806005    -0.11800
C1639       C  0.93185400  0.72088451  0.57942491    -0.10200
C1640       C  0.90191274  0.69240292  0.57877436    -0.11800
C1641       C  0.55874692  0.78750876  0.60396531    -0.10200
C1642       C  0.57997920  0.78367449  0.61498168    -0.11800
C1643       C  0.51678821  0.87147998  0.54481124    -0.10200
C1644       C  0.51422641  0.84781494  0.55655845    -0.11800
C1645       C  0.73572269  0.62484210  0.57560707    -0.10200
C1646       C  0.76482735  0.62463251  0.57588897    -0.11800
C1647       C  0.66005463  0.67594661  0.60073080    -0.10200
C1648       C  0.65594646  0.69670751  0.61202623    -0.11800
C1649       C  0.58308996  0.55507210  0.54072021    -0.10200
C1650       C  0.60934329  0.57577005  0.55114182    -0.11800
C1651       C  0.98963130  0.57212753  0.75070708    -0.10200
C1652       C  0.48975623  0.54232858  0.74991798    -0.11800
C1653       C  0.53791027  0.69722550  0.72319703    -0.10200
C1654       C  0.55901032  0.71784225  0.71092625    -0.11800
C1655       C  0.92170119  0.65995966  0.78293951    -0.10200
C1656       C  0.94230581  0.65437389  0.77274024    -0.11800
C1657       C  0.55864036  0.97183681  0.74467585    -0.10200
C1658       C  0.58754139  0.97124402  0.74487238    -0.11800
C1659       C  0.71201144  0.52267764  0.77180560    -0.10200
C1660       C  0.73562240  0.54384555  0.78340625    -0.11800
C1661       C  0.66535705  0.91910691  0.72404061    -0.10200
C1662       C  0.67039301  0.89805607  0.71338725    -0.11800
C1663       C  0.89309745  0.87328257  0.74320485    -0.10200
C1664       C  0.92207930  0.90279236  0.74378207    -0.11800
C1665       C  0.81847413  0.74421419  0.76503274    -0.10200
C1666       C  0.82266388  0.72351111  0.77646576    -0.11800
C1667       C  0.76608358  0.80204272  0.72018248    -0.10200
C1668       C  0.74516599  0.80731651  0.70962753    -0.11800
C1669       C  0.94610964  0.73533014  0.87568743    -0.10200
C1670       C  0.97051682  0.75675673  0.88691512    -0.11800
C1671       C  0.52614059  0.86443725  0.93290697    -0.10200
C1672       C  0.53001515  0.88960077  0.94408165    -0.11800
C1673       C  0.62682444  0.80714273  0.91075396    -0.10200
C1674       C  0.59773775  0.80738861  0.91002891    -0.11800
C1675       C  0.69440667  0.73521282  0.91462300    -0.10200
C1676       C  0.69458254  0.70542182  0.91486369    -0.11800
C1677       C  0.74184279  0.62583361  0.88906889    -0.10200
C1678       C  0.76116048  0.62039337  0.87779184    -0.11800
C1679       C  0.64806418  0.57770629  0.93947288    -0.10200
C1680       C  0.62805191  0.55213136  0.95017929    -0.11800
C1681       C  0.79303318  0.90438676  0.91577249    -0.10200
C1682       C  0.76378143  0.87506692  0.91549004    -0.11800
C1683       C  0.86197578  0.53360099  0.89325545    -0.10200
C1684       C  0.85717965  0.55451673  0.88232711    -0.11800
C1685       C  0.94542311  0.98537697  0.94842573    -0.10200
C1686       C  0.92123502  0.98247838  0.93710123    -0.11800
C1687       C  0.83074426  0.60635028  0.07946481    -0.10200
C1688       C  0.80167613  0.57681715  0.07986005    -0.11800
C1689       C  0.71945166  0.92100706  0.11241666    -0.10200
C1690       C  0.72417299  0.94721278  0.10197215    -0.11800
C1691       C  0.67477629  0.00366054  0.05583513    -0.10200
C1692       C  0.65094755  0.00089420  0.04432000    -0.11800
C1693       C  0.89953055  0.74620120  0.07342847    -0.10200
C1694       C  0.89952968  0.77611576  0.07287563    -0.11800
C1695       C  0.84896201  0.85035669  0.10125018    -0.10200
C1696       C  0.82787906  0.84941992  0.11370413    -0.11800
C1697       C  0.94560381  0.90654928  0.05214553    -0.10200
C1698       C  0.96619633  0.93292493  0.04197408    -0.11800
C1699       C  0.96744226  0.67505554  0.08042759    -0.10200
C1700       C  0.99633083  0.67456360  0.08158099    -0.11800
C1701       C  0.62146411  0.72808014  0.10720086    -0.10200
C1702       C  0.64248460  0.75438028  0.11771781    -0.11800
C1703       C  0.57111545  0.61986471  0.06096929    -0.10200
C1704       C  0.56714830  0.59507969  0.04948620    -0.11800
loop_ 
_geom_bond_atom_site_label_1 
_geom_bond_atom_site_label_2 
_geom_bond_distance 
_geom_bond_site_symmetry_2 
_ccdc_geom_bond_type 
C1            N2   1.363       .  A
C1            N6   1.356       .  A
C1          C425   1.440       .  S
N2            C3   1.364       .  A
C3            N4   1.356       .  A
C3          C423   1.439       .  S
N4          C857   1.353       .  A
C5          N856   1.353       .  A
C5          N858   1.353       .  A
C5          C422   1.434       .  S
N6          C857   1.353       .  A
C7            N8   1.360       .  A
C7           N12   1.361       .  A
C7          C419   1.441       .  S
N8            C9   1.358       .  A
C9           N10   1.356       .  A
C9          C416   1.438       .  S
N10          C11   1.356       .  A
C11          N12   1.359       .  A
C11         C417   1.439       .  S
C13          N14   1.359       .  A
C13          N18   1.359       .  A
C13         C412   1.440       .  S
N14          C15   1.358       .  A
C15         N442   1.357       .  A
C15         C413   1.439       .  S
N16          C17   1.357       .  A
N16         C441   1.357       .  A
C17         N444   1.359       .  A
C17         C410   1.439       .  S
N18         C443   1.359       .  A
C19         C409   1.443       .  S
C19          C20   1.401       .  A
C19          C24   1.403       .  A
C20          C21   1.401       .  A
C20          H25   1.085       .  S
C21         C421   1.438       .  S
C21          C22   1.401       .  A
C22          C23   1.401       .  A
C22          H26   1.085       .  S
C23         C415   1.442       .  S
C23          C24   1.404       .  A
C24          H27   1.084       .  S
C28          N33   1.361       .  A
C28         N455   1.356   1_545  A
C28         C405   1.441       .  S
N29          C30   1.354       .  A
N29         C454   1.356       .  A
C30          N31   1.357       .  A
C30         C403   1.436       .  S
N31          C32   1.359       .  A
C32         N459   1.363       .  A
C32         C408   1.442       .  S
N33         C458   1.363   1_545  A
C34          N35   1.358       .  A
C34          N39   1.357       .  A
C34         C399   1.437       .  S
N35          C36   1.358       .  A
C36          N37   1.357       .  A
C36         C401   1.437       .  S
N37          C38   1.357       .  A
C38          N39   1.357       .  A
C38         C398   1.435       .  S
C40         C397   1.439       .  S
C40          C41   1.401       .  A
C40          C45   1.400       .  A
C41          C42   1.401       .  A
C41          H46   1.085       .  S
C42         C395   1.442       .  S
C42          C43   1.403       .  A
C43          C44   1.403       .  A
C43          H47   1.084       .  S
C44         C404   1.441       .  S
C44          C45   1.400       .  A
C45          H48   1.085       .  S
C49          N50   1.356       .  A
C49          N54   1.360   1_455  A
C49         C393   1.440       .  S
N50          C51   1.355       .  A
C51          N52   1.357       .  A
C51         C396   1.437       .  S
N52          C53   1.359       .  A
C53          N54   1.362   1_455  A
C53        C1244   1.440   1_455  S
O55          C76   1.269       .  A
O55        Ni487   1.930   1_556  S
O56          C65   1.266       .  A
O56         Ni79   1.909       .  S
O57          H80   0.966       .  S
O57        Ni913   1.927   1_456  S
O57        Ni505   1.921   1_556  S
O57        Ni499   1.922   1_545  S
C58         C394   1.439       .  S
C58          O75   1.270       .  A
C58          O67   1.272       .  A
O59          C65   1.269       .  A
O59         Ni78   1.930   1_554  S
O60          C62   1.267       .  A
O60        Ni504   1.905   1_545  S
Ni61        O481   1.930   1_544  S
Ni61        O916   1.929       .  S
Ni61        O492   1.907   1_545  S
Ni61        O909   1.927   1_554  S
C62         C402   1.437       .  S
C62          O72   1.272       .  A
O63          C69   1.268       .  A
O63        Ni505   1.913       .  S
O64          C69   1.271       .  A
O64        Ni913   1.929   1_455  S
C65         C414   1.439       .  S
O66          C68   1.268       .  A
O66        Ni487   1.907       .  S
O67         Ni78   1.928       .  S
C68         C420   1.440       .  S
C68         O926   1.274       .  A
C69         C426   1.440       .  S
H70          O71   0.966   1_554  S
O71         Ni79   1.914   1_556  S
O71         Ni73   1.918       .  S
O71         Ni78   1.925       .  S
O72        Ni499   1.936   1_545  S
Ni73         O75   1.916       .  S
Ni73        O498   1.936       .  S
Ni73        O929   1.912   1_455  S
Ni73        O483   1.922       .  S
O74         C920   1.274   1_455  A
O74         Ni79   1.940       .  S
C76         C407   1.442       .  S
C76          O77   1.267       .  A
O77        Ni925   1.912       .  S
Ni78        O486   1.905       .  S
Ni79        O489   1.913       .  S
Ni79        O483   1.921   1_554  S
C81          N82   1.357       .  A
C81          N86   1.365       .  A
C81         C387   1.445       .  S
N82          C83   1.354       .  A
C83          N84   1.353       .  A
C83         C385   1.433       .  S
N84          C85   1.356       .  A
C85          N86   1.366       .  A
C85         C389   1.443       .  S
C87          N88   1.358       .  A
C87          N92   1.359       .  A
C87         C383   1.438       .  S
N88          C89   1.358       .  A
C89         N516   1.356       .  A
C89         C807   1.436       .  S
N90         C515   1.356       .  A
N90         C517   1.356       .  A
C91          N92   1.358       .  A
C91         N516   1.356       .  A
C91         C380   1.436       .  S
C93          N94   1.355       .  A
C93         N950   1.358   1_455  A
C93         C375   1.435       .  S
N94         C947   1.355   1_455  A
C95          N96   1.357       .  A
C95         N946   1.355       .  A
C95         C373   1.435       .  S
N96          C97   1.359       .  A
C97          N98   1.359       .  A
C97         C378   1.437       .  S
N98         C945   1.358       .  A
C99         C805   1.440       .  S
C99         C104   1.402   1_565  A
C99         C526   1.400   1_455  A
C100        C525   1.400   1_655  A
C100        C953   1.400       .  A
C100        H105   1.085       .  S
C101        C386   1.438       .  S
C101        C952   1.400       .  A
C101        C528   1.401       .  A
C102        C527   1.401       .  A
C102        C955   1.401   1_565  A
C102        H106   1.085       .  S
C103        C374   1.439       .  S
C103        C104   1.402   1_655  A
C103        C954   1.401   1_545  A
C104        H107   1.085       .  S
O108        C129   1.270       .  A
O108       Ni114   1.932       .  S
O109        C118   1.266       .  A
O109       Ni132   1.906       .  S
O110        H133   0.967       .  S
O110       Ni114   1.920       .  S
O110       Ni132   1.916       .  S
O110       Ni126   1.919       .  S
C111        C406   1.440       .  S
C111        O128   1.274       .  A
C111        O120   1.274       .  A
O112        C118   1.270       .  A
O112       Ni131   1.932       .  S
O113        C115   1.267       .  A
O113       Ni131   1.907       .  S
Ni114       O117   1.927       .  S
Ni114       O119   1.907       .  S
C115        C400   1.436       .  S
C115        O125   1.270       .  A
O116        C122   1.273       .  A
O116       Ni132   1.924       .  S
O117        C122   1.273       .  A
C118        C382   1.435       .  S
O119        C121   1.267       .  A
O120       Ni131   1.927       .  S
C121        C377   1.436       .  S
C121        O127   1.271       .  A
C122        C388   1.445       .  S
H123        O124   0.967       .  S
O124       Ni132   1.914       .  S
O124       Ni126   1.912       .  S
O124       Ni131   1.918       .  S
O125       Ni126   1.929       .  S
Ni126       O130   1.910       .  S
Ni126       O128   1.921       .  S
O127       Ni132   1.930       .  S
C129        C391   1.440       .  S
C129        O130   1.266       .  A
C134        N135   1.357       .  A
C134        N139   1.357       .  A
C134        C369   1.436       .  S
N135        C136   1.357       .  A
C136        N137   1.359       .  A
C136        C367   1.436       .  S
N137        C138   1.358       .  A
C138        N139   1.358       .  A
C138        C372   1.438       .  S
C140        N141   1.362       .  A
C140        N145   1.358   1_455  A
C140        C363   1.443       .  S
N141        C142   1.363       .  A
C142        N143   1.357   1_455  A
C142        C366   1.441       .  S
N143        C996   1.355       .  A
C144        N995   1.355       .  A
C144        N997   1.356       .  A
C144        C361   1.436       .  S
N145        C996   1.356       .  A
C146        N147   1.363       .  A
C146        N577   1.358       .  A
C146        C360   1.442       .  S
N147        C148   1.363       .  A
C148        N575   1.357       .  A
C148        C358   1.440       .  S
N149        C150   1.354       .  A
N149        C574   1.357       .  A
C150        N151   1.355       .  A
C150        C355   1.435   1_565  S
N151        C572   1.358       .  A
C152        C368   1.441       .  S
C152        C153   1.403       .  A
C152        C157   1.402       .  A
C153        C154   1.402       .  A
C153        H158   1.084       .  S
C154        C362   1.440       .  S
C154        C155   1.400       .  A
C155        C156   1.400       .  A
C155        H159   1.085       .  S
C156        C356   1.440       .  S
C156        C157   1.401       .  A
C157        H160   1.085       .  S
O161        C182   1.270       .  A
O161       Ni167   1.932       .  S
O162        C171   1.267       .  A
O162       Ni185   1.910       .  S
O163        H186   0.967       .  S
O163       Ni167   1.913       .  S
O163       Ni185   1.908       .  S
O163       Ni179   1.912       .  S
C164        C384   1.438       .  S
C164        O181   1.273       .  A
C164        O173   1.276       .  A
O165        C171   1.272       .  A
O165       Ni184   1.936       .  S
O166        C168   1.269       .  A
O166       Ni184   1.914       .  S
Ni167       O170   1.925       .  S
Ni167       O172   1.910       .  S
C168        C390   1.444       .  S
C168        O178   1.270       .  A
O169        C175   1.274       .  A
O169       Ni185   1.917       .  S
O170        C175   1.275       .  A
C171        C357   1.441       .  S
O172        C174   1.268       .  A
O173       Ni184   1.931       .  S
C174        C364   1.443       .  S
C174        O180   1.272       .  A
C175        C370   1.435       .  S
H176        O177   0.967       .  S
O177       Ni185   1.912       .  S
O177       Ni179   1.910       .  S
O177       Ni184   1.915       .  S
O178       Ni179   1.933       .  S
Ni179       O183   1.905       .  S
Ni179       O181   1.915       .  S
O180       Ni185   1.935       .  S
C182        C376   1.435       .  S
C182        O183   1.265       .  A
C187        N188   1.356       .  A
C187        N192   1.356       .  A
C187        C351   1.434       .  S
N188        C189   1.356       .  A
C189        N190   1.360       .  A
C189        C353   1.437       .  S
N190        C191   1.360       .  A
C191        N192   1.357       .  A
C191        C349   1.439       .  S
C193        N194   1.363       .  A
C193       N1050   1.359       .  A
C193        C346   1.446       .  S
N194       C1047   1.364       .  A
C195        N196   1.357       .  A
C195       N1046   1.364       .  A
C195        C348   1.444       .  S
N196        C197   1.356       .  A
C197        N198   1.357       .  A
C197        C343   1.438       .  S
N198       C1045   1.359       .  A
C199        N200   1.358       .  A
C199        N204   1.360       .  A
C199        C341   1.439       .  S
N200        C201   1.356       .  A
C201        N202   1.354       .  A
C201        C337   1.436       .  S
N202        C203   1.356       .  A
C203        N204   1.360       .  A
C203        C766   1.435       .  S
C205        C350   1.443       .  S
C205        C206   1.404       .  A
C205        C210   1.403       .  A
C206        C207   1.403       .  A
C206        H211   1.084       .  S
C207        C344   1.442       .  S
C207        C208   1.400       .  A
C208        C209   1.400       .  A
C208        H212   1.085       .  S
C209        C338   1.440       .  S
C209        C210   1.402       .  A
C210        H213   1.084       .  S
O214        C235   1.269       .  A
O214       Ni220   1.925       .  S
O215        C224   1.268       .  A
O215       Ni664   1.913   1_545  S
O216        H239   0.966       .  S
O216       Ni220   1.925       .  S
O216       Ni238   1.917       .  S
O216       Ni232   1.924       .  S
C217        C359   1.442       .  S
C217        O234   1.268       .  A
C217        O652   1.272       .  A
O218        C224   1.270       .  A
O218       Ni237   1.931   1_455  S
O219        C221   1.269       .  A
O219       Ni237   1.906   1_455  S
Ni220       O223   1.932       .  S
Ni220      O1077   1.906   1_455  S
C221        C371   1.437       .  S
C221        O231   1.275   1_545  A
O222        C228   1.266       .  A
O222       Ni238   1.911       .  S
O223        C228   1.269       .  A
C224        C347   1.444       .  S
O225        C227   1.270       .  A
O225      Ni1072   1.906       .  S
O226        C643   1.272   1_545  A
O226      Ni1089   1.936       .  S
C227        C354   1.437       .  S
C227        O233   1.276       .  A
C228        C342   1.438       .  S
H229       O1082   0.966       .  S
O230       H1081   0.966       .  S
O230       Ni238   1.917   1_655  S
O230       Ni232   1.914   1_655  S
O230       Ni663   1.923       .  S
O231       Ni658   1.945       .  S
Ni232       O236   1.913       .  S
Ni232       O657   1.945       .  S
Ni232      O1086   1.913   1_455  S
O233      Ni1090   1.945       .  S
O234      Ni1084   1.913       .  S
C235        C365   1.441       .  S
C235        O236   1.268       .  A
Ni237      O1078   1.936       .  S
Ni237       O656   1.923   1_545  S
Ni238       O641   1.913       .  S
Ni238      O1085   1.945       .  S
C240        N241   1.360       .  A
C240        N245   1.358       .  A
C240        C762   1.436       .  S
N241        C242   1.359       .  A
C242        N243   1.355       .  A
C242        C333   1.435       .  S
N243        C244   1.354       .  A
C244        N245   1.356       .  A
C244        C332   1.433       .  S
C246        N247   1.358       .  A
C246        N251   1.360       .  A
C246        C327   1.436       .  S
N247        C248   1.356       .  A
C248        N249   1.354       .  A
C248        C326   1.433       .  S
N249        C250   1.355       .  A
C250        N251   1.359       .  A
C250        C329   1.437       .  S
C252        N253   1.360       .  A
C252        N257   1.357       .  A
C252       C1173   1.438       .  S
N253        C254   1.361       .  A
C254        N255   1.358       .  A
C254        C324   1.440       .  S
N255        C256   1.356       .  A
C256        N257   1.355       .  A
C256        C319   1.437       .  S
C258       C1183   1.438   1_455  S
C258        C259   1.400       .  A
C258        C263   1.403       .  A
C259        C260   1.399       .  A
C259        H690   1.085       .  S
C260        C751   1.438       .  S
C260        C261   1.401       .  A
C261        C262   1.401       .  A
C261        H265   1.085       .  S
C262        C320   1.442       .  S
C262        C263   1.403       .  A
C263       H1118   1.084   1_455  S
H264        C685   1.085       .  S
H266       C1115   1.084       .  S
O267        C288   1.270       .  A
O267       Ni273   1.934       .  S
O268        C277   1.266       .  A
O268       Ni291   1.909       .  S
O269        H292   0.966       .  S
O269       Ni273   1.919       .  S
O269       Ni291   1.914       .  S
O269       Ni285   1.913       .  S
C270        C411   1.439       .  S
C270        O287   1.273       .  A
C270        O279   1.275       .  A
O271        C277   1.270       .  A
O271       Ni290   1.934       .  S
O272        C274   1.268       .  A
O272       Ni290   1.911       .  S
Ni273       O276   1.927       .  S
Ni273       O278   1.908       .  S
C274        C424   1.440       .  S
C274        O284   1.269       .  A
O275        C281   1.272       .  A
O275       Ni291   1.913       .  S
O276        C281   1.274       .  A
C277        C323   1.439       .  S
O278        C280   1.267       .  A
O279       Ni290   1.929       .  S
C280        C334   1.435       .  S
C280        O286   1.269       .  A
C281        C328   1.435       .  S
H282        O283   0.966       .  S
O283       Ni291   1.911       .  S
O283       Ni285   1.912       .  S
O283       Ni290   1.918       .  S
O284       Ni285   1.929       .  S
Ni285       O289   1.908       .  S
Ni285       O287   1.916       .  S
O286       Ni291   1.926       .  S
C288        C418   1.438       .  S
C288        O289   1.265       .  A
O293        C314   1.269       .  A
O293       Ni299   1.931       .  S
O294        C303   1.267       .  A
O294       Ni317   1.910       .  S
O295        H318   0.966       .  S
O295       Ni299   1.913       .  S
O295       Ni317   1.909       .  S
O295       Ni311   1.911       .  S
C296        C352   1.434       .  S
C296        O313   1.274       .  A
C296        O305   1.275       .  A
O297        C303   1.270       .  A
O297       Ni316   1.931       .  S
O298        C300   1.268       .  A
O298       Ni316   1.910       .  S
Ni299       O302   1.927       .  S
Ni299       O304   1.905       .  S
C300        C345   1.446       .  S
C300        O310   1.273       .  A
O301        C307   1.275       .  A
O301       Ni317   1.917       .  S
O302        C307   1.275       .  A
C303        C322   1.437       .  S
O304        C306   1.266       .  A
O305       Ni316   1.925       .  S
C306        C330   1.437       .  S
C306        O312   1.270       .  A
C307        C335   1.436       .  S
H308        O309   0.967       .  S
O309       Ni317   1.912       .  S
O309       Ni311   1.907       .  S
O309       Ni316   1.910       .  S
O310       Ni311   1.939       .  S
Ni311       O315   1.908       .  S
Ni311       O313   1.916       .  S
O312       Ni317   1.931       .  S
C314        C339   1.435       .  S
C314        O315   1.267       .  A
C319        C320   1.207       .  T
C321       C1104   1.438       .  S
C321        C322   1.207       .  T
C323        C324   1.208       .  T
C325        C686   1.438       .  S
C325        C326   1.204       .  T
C327        C328   1.206       .  T
C329        C330   1.207       .  T
C331       C1110   1.438       .  S
C331        C332   1.205       .  T
C333        C334   1.206       .  T
C335        C336   1.206       .  T
C336        C666   1.436       .  S
C337        C338   1.206       .  T
C339        C340   1.206       .  T
C340        C629   1.435       .  S
C341        C342   1.208       .  T
C343        C344   1.208       .  T
C345        C346   1.212       .  T
C347        C348   1.211       .  T
C349        C350   1.208       .  T
C351        C352   1.205       .  T
C353        C354   1.207       .  T
C355        C356   1.206       .  T
C357        C358   1.209       .  T
C359        C360   1.210       .  T
C361        C362   1.206       .  T
C363        C364   1.210       .  T
C365        C366   1.209       .  T
C367        C368   1.207       .  T
C369        C370   1.206       .  T
C371        C372   1.207       .  T
C373       C1226   1.206       .  T
C374       C1225   1.206       .  T
C375        C376   1.206       .  T
C377        C378   1.206       .  T
C379        C525   1.440       .  S
C379        C380   1.206       .  T
C381        C515   1.436   1_545  S
C381        C382   1.206       .  T
C383        C384   1.208       .  T
C385        C386   1.205       .  T
C387        C388   1.212       .  T
C389        C390   1.211       .  T
C391        C392   1.209       .  T
C392        C905   1.440       .  S
C393        C394   1.209       .  T
C395        C396   1.207       .  T
C397        C398   1.205       .  T
C399        C400   1.206       .  T
C401        C402   1.207       .  T
C403        C404   1.206       .  T
C405        C406   1.209       .  T
C407        C408   1.210       .  T
C409        C410   1.208       .  T
C411        C412   1.209       .  T
C413        C414   1.208       .  T
C415        C416   1.207       .  T
C417        C418   1.208       .  T
C419        C420   1.209       .  T
C421        C422   1.205       .  T
C423        C424   1.208       .  T
C425        C426   1.209       .  T
C427        N428   1.363       .  A
C427        N432   1.356       .  A
C427        C851   1.440       .  S
N428        C429   1.364       .  A
C429        N430   1.356       .  A
C429        C849   1.439       .  S
N430       C1283   1.353       .  A
C431       N1282   1.353       .  A
C431       N1284   1.353       .  A
C431        C848   1.434       .  S
N432       C1283   1.353       .  A
C433        N434   1.360       .  A
C433        N438   1.361       .  A
C433        C845   1.441       .  S
N434        C435   1.358       .  A
C435        N436   1.356       .  A
C435        C842   1.438       .  S
N436        C437   1.356       .  A
C437        N438   1.359       .  A
C437        C843   1.439       .  S
C439        N440   1.359       .  A
C439        N444   1.359   1_565  A
C439        C838   1.440       .  S
N440        C441   1.358   1_565  A
C441        C839   1.439       .  S
N442        C443   1.357       .  A
C443        C836   1.439       .  S
C445        C835   1.443       .  S
C445        C446   1.401       .  A
C445        C450   1.403       .  A
C446        C447   1.401       .  A
C446        H451   1.085       .  S
C447        C847   1.438       .  S
C447        C448   1.401       .  A
C448        C449   1.401       .  A
C448        H452   1.085       .  S
C449        C841   1.442       .  S
C449        C450   1.404       .  A
C450        H453   1.084       .  S
C454        N459   1.361       .  A
C454        C831   1.441       .  S
N455        C456   1.354       .  A
C456        N457   1.357       .  A
C456        C829   1.436       .  S
N457        C458   1.359       .  A
C458        C834   1.442       .  S
C460        N461   1.358       .  A
C460        N465   1.357       .  A
C460        C825   1.437       .  S
N461        C462   1.358       .  A
C462        N463   1.357       .  A
C462        C827   1.437       .  S
N463        C464   1.357       .  A
C464        N465   1.357       .  A
C464        C824   1.435       .  S
C466        C823   1.439       .  S
C466        C467   1.401       .  A
C466        C471   1.400       .  A
C467        C468   1.401       .  A
C467        H472   1.085       .  S
C468        C821   1.442       .  S
C468        C469   1.403       .  A
C469        C470   1.403       .  A
C469        H473   1.084       .  S
C470        C830   1.441       .  S
C470        C471   1.400       .  A
C471        H474   1.085       .  S
C475        N476   1.356       .  A
C475        N480   1.360   1_455  A
C475        C819   1.440       .  S
N476        C477   1.355       .  A
C477        N478   1.357       .  A
C477        C822   1.437       .  S
N478        C479   1.359       .  A
C479        N480   1.362   1_455  A
C479       C1670   1.440   1_455  S
O481        C502   1.269       .  A
O482        C491   1.266       .  A
O482       Ni505   1.909   1_565  S
O483        H506   0.966       .  S
O483      Ni1339   1.927   1_456  S
C484        C820   1.439       .  S
C484        O501   1.270       .  A
C484        O493   1.272       .  A
O485        C491   1.269       .  A
O485       Ni504   1.930   1_554  S
O486        C488   1.267       .  A
Ni487      O1342   1.929       .  S
Ni487      O1335   1.927   1_554  S
C488        C828   1.437       .  S
C488        O498   1.272       .  A
O489        C495   1.268       .  A
O490        C495   1.271       .  A
O490      Ni1339   1.929   1_455  S
C491        C840   1.439   1_565  S
O492        C494   1.268       .  A
O493       Ni504   1.928       .  S
C494        C846   1.440       .  S
C494       O1352   1.274       .  A
C495        C852   1.440       .  S
H496        O497   0.966   1_554  S
O497       Ni505   1.914   1_566  S
O497       Ni499   1.918       .  S
O497       Ni504   1.925       .  S
Ni499      O1355   1.912   1_455  S
Ni499       O501   1.916       .  S
O500       C1346   1.274   1_455  A
O500       Ni505   1.940   1_565  S
C502        C833   1.442       .  S
C502        O503   1.267       .  A
O503      Ni1351   1.912       .  S
C507        N508   1.357       .  A
C507        N512   1.365       .  A
C507        C813   1.445       .  S
N508        C509   1.354       .  A
C509        N510   1.353       .  A
C509        C811   1.433       .  S
N510        C511   1.356       .  A
C511        N512   1.366       .  A
C511        C815   1.443       .  S
C513        N514   1.358       .  A
C513        N518   1.359       .  A
C513        C809   1.438       .  S
N514        C515   1.358       .  A
C517        N518   1.358       .  A
C517        C806   1.436       .  S
C519        N520   1.355       .  A
C519       N1376   1.358   1_455  A
C519        C801   1.435       .  S
N520       C1373   1.355   1_455  A
C521       N1372   1.355       .  A
C521        N522   1.357       .  A
C521        C799   1.435       .  S
N522        C523   1.359       .  A
C523        N524   1.359       .  A
C523        C804   1.437       .  S
N524       C1371   1.358       .  A
C525        C530   1.402       .  A
C526       C1379   1.400       .  A
C526        H531   1.085       .  S
C527        C812   1.438       .  S
C527       C1378   1.400       .  A
C528       C1381   1.401       .  A
C528        H532   1.085       .  S
C529        C800   1.439       .  S
C529       C1380   1.401       .  A
C529        C530   1.402   1_655  A
C530        H533   1.085       .  S
O534        C555   1.270       .  A
O534       Ni540   1.932       .  S
O535        C544   1.266       .  A
O535       Ni558   1.906       .  S
O536        H559   0.967       .  S
O536       Ni540   1.920       .  S
O536       Ni558   1.916       .  S
O536       Ni552   1.919       .  S
C537        C832   1.440       .  S
C537        O554   1.274       .  A
C537        O546   1.274       .  A
O538        C544   1.270       .  A
O538       Ni557   1.932       .  S
O539        C541   1.267       .  A
O539       Ni557   1.907       .  S
Ni540       O543   1.927       .  S
Ni540       O545   1.907       .  S
C541        C826   1.436       .  S
C541        O551   1.270       .  A
O542        C548   1.273       .  A
O542       Ni558   1.924       .  S
O543        C548   1.273       .  A
C544        C808   1.435       .  S
O545        C547   1.267       .  A
O546       Ni557   1.927       .  S
C547        C803   1.436       .  S
C547        O553   1.271       .  A
C548        C814   1.445       .  S
H549        O550   0.967       .  S
O550       Ni558   1.914       .  S
O550       Ni552   1.912       .  S
O550       Ni557   1.918       .  S
O551       Ni552   1.929       .  S
Ni552       O556   1.910       .  S
Ni552       O554   1.921       .  S
O553       Ni558   1.930       .  S
C555        C817   1.440       .  S
C555        O556   1.266       .  A
C560        N561   1.357       .  A
C560        N565   1.357       .  A
C560        C795   1.436       .  S
N561        C562   1.357       .  A
C562        N563   1.359       .  A
C562        C793   1.436       .  S
N563        C564   1.358       .  A
C564        N565   1.358       .  A
C564        C798   1.438       .  S
C566        N567   1.362       .  A
C566        N571   1.358   1_455  A
C566        C789   1.443       .  S
N567        C568   1.363       .  A
C568        N569   1.357   1_455  A
C568        C792   1.441       .  S
N569       C1422   1.355       .  A
C570       N1421   1.355       .  A
C570       N1423   1.356       .  A
C570        C787   1.436       .  S
N571       C1422   1.356       .  A
C572        N573   1.363       .  A
C572        C786   1.442       .  S
N573        C574   1.363       .  A
C574        C784   1.440       .  S
N575        C576   1.354       .  A
C576        N577   1.355       .  A
C576        C781   1.435       .  S
C578        C794   1.441       .  S
C578        C579   1.403       .  A
C578        C583   1.402       .  A
C579        C580   1.402       .  A
C579        H584   1.084       .  S
C580        C788   1.440       .  S
C580        C581   1.400       .  A
C581        C582   1.400       .  A
C581        H585   1.085       .  S
C582        C782   1.440       .  S
C582        C583   1.401       .  A
C583        H586   1.085       .  S
O587        C608   1.270       .  A
O587       Ni593   1.932       .  S
O588        C597   1.267       .  A
O588       Ni611   1.910       .  S
O589        H612   0.967       .  S
O589       Ni593   1.913       .  S
O589       Ni611   1.908       .  S
O589       Ni605   1.912       .  S
C590        C810   1.438       .  S
C590        O607   1.273       .  A
C590        O599   1.276       .  A
O591        C597   1.272       .  A
O591       Ni610   1.936       .  S
O592        C594   1.269       .  A
O592       Ni610   1.914       .  S
Ni593       O596   1.925       .  S
Ni593       O598   1.910       .  S
C594        C816   1.444       .  S
C594        O604   1.270       .  A
O595        C601   1.274       .  A
O595       Ni611   1.917       .  S
O596        C601   1.275       .  A
C597        C783   1.441       .  S
O598        C600   1.268       .  A
O599       Ni610   1.931       .  S
C600        C790   1.443       .  S
C600        O606   1.272       .  A
C601        C796   1.435       .  S
H602        O603   0.967       .  S
O603       Ni611   1.912       .  S
O603       Ni605   1.910       .  S
O603       Ni610   1.915       .  S
O604       Ni605   1.933       .  S
Ni605       O609   1.905       .  S
Ni605       O607   1.915       .  S
O606       Ni611   1.935       .  S
C608        C802   1.435       .  S
C608        O609   1.265       .  A
C613        N614   1.356       .  A
C613        N618   1.356       .  A
C613        C777   1.434       .  S
N614        C615   1.356       .  A
C615        N616   1.360       .  A
C615        C779   1.437       .  S
N616        C617   1.360       .  A
C617        N618   1.357       .  A
C617        C775   1.439       .  S
C619        N620   1.363       .  A
C619       N1476   1.359       .  A
C619        C772   1.446       .  S
N620       C1473   1.364       .  A
C621       N1472   1.364       .  A
C621        N622   1.357       .  A
C621        C774   1.444       .  S
N622        C623   1.356       .  A
C623        N624   1.357       .  A
C623        C769   1.438       .  S
N624       C1471   1.359       .  A
C625        N626   1.358       .  A
C625        N630   1.360   1_565  A
C625        C767   1.439       .  S
N626        C627   1.356       .  A
C627        N628   1.354       .  A
C627        C763   1.436       .  S
N628        C629   1.356   1_565  A
C629        N630   1.360       .  A
C631        C776   1.443       .  S
C631        C632   1.404       .  A
C631        C636   1.403       .  A
C632        C633   1.403       .  A
C632        H637   1.084       .  S
C633        C770   1.442       .  S
C633        C634   1.400       .  A
C634        C635   1.400       .  A
C634        H638   1.085       .  S
C635        C764   1.440       .  S
C635        C636   1.402       .  A
C636        H639   1.084       .  S
O640        C661   1.269       .  A
O640       Ni646   1.925       .  S
O641        C650   1.268       .  A
O642        H665   0.966       .  S
O642       Ni646   1.925       .  S
O642       Ni664   1.917       .  S
O642       Ni658   1.924       .  S
C643        C785   1.442       .  S
C643        O660   1.268       .  A
O644        C650   1.270       .  A
O644       Ni663   1.931   1_455  S
O645        C647   1.269       .  A
O645       Ni663   1.906   1_455  S
Ni646       O649   1.932       .  S
Ni646      O1503   1.906   1_455  S
C647        C797   1.437       .  S
C647        O657   1.275       .  A
O648        C654   1.266   1_545  A
O648       Ni664   1.911   1_545  S
O649        C654   1.269       .  A
C650        C773   1.444       .  S
O651        C653   1.270       .  A
O651      Ni1498   1.906       .  S
O652      Ni1515   1.936       .  S
C653        C780   1.437       .  S
C653        O659   1.276       .  A
C654        C768   1.438       .  S
H655       O1508   0.966       .  S
O656       H1507   0.966       .  S
O656       Ni664   1.917   1_655  S
O656       Ni658   1.914   1_655  S
Ni658       O662   1.913       .  S
Ni658      O1512   1.913   1_455  S
O659      Ni1516   1.945       .  S
O660      Ni1510   1.913       .  S
C661        C791   1.441       .  S
C661        O662   1.268       .  A
Ni663      O1504   1.936       .  S
Ni664      O1511   1.945       .  S
C666        N667   1.360   1_545  A
C666        N671   1.358       .  A
N667        C668   1.359       .  A
C668        N669   1.355       .  A
C668        C759   1.435       .  S
N669        C670   1.354       .  A
C670        N671   1.356   1_565  A
C670        C758   1.433       .  S
C672        N673   1.358       .  A
C672        N677   1.360       .  A
C672        C753   1.436       .  S
N673        C674   1.356       .  A
C674        N675   1.354       .  A
C674        C752   1.433       .  S
N675        C676   1.355       .  A
C676        N677   1.359       .  A
C676        C755   1.437       .  S
C678        N679   1.360       .  A
C678        N683   1.357       .  A
C678       C1599   1.438       .  S
N679        C680   1.361       .  A
C680        N681   1.358       .  A
C680        C750   1.440       .  S
N681        C682   1.356       .  A
C682        N683   1.355       .  A
C682        C745   1.437       .  S
C684       C1609   1.438   1_455  S
C684        C685   1.400   1_565  A
C684        C689   1.403       .  A
C685        C686   1.399       .  A
C686        C687   1.401   1_545  A
C687        C688   1.401       .  A
C687        H691   1.085       .  S
C688        C746   1.442       .  S
C688        C689   1.403       .  A
C689       H1544   1.084   1_455  S
H692       C1541   1.084       .  S
O693        C714   1.270       .  A
O693       Ni699   1.934       .  S
O694        C703   1.266       .  A
O694       Ni717   1.909       .  S
O695        H718   0.966       .  S
O695       Ni699   1.919       .  S
O695       Ni717   1.914       .  S
O695       Ni711   1.913       .  S
C696        C837   1.439       .  S
C696        O713   1.273       .  A
C696        O705   1.275       .  A
O697        C703   1.270       .  A
O697       Ni716   1.934       .  S
O698        C700   1.268       .  A
O698       Ni716   1.911       .  S
Ni699       O702   1.927       .  S
Ni699       O704   1.908       .  S
C700        C850   1.440       .  S
C700        O710   1.269       .  A
O701        C707   1.272       .  A
O701       Ni717   1.913       .  S
O702        C707   1.274       .  A
C703        C749   1.439       .  S
O704        C706   1.267       .  A
O705       Ni716   1.929       .  S
C706        C760   1.435       .  S
C706        O712   1.269       .  A
C707        C754   1.435       .  S
H708        O709   0.966       .  S
O709       Ni717   1.911       .  S
O709       Ni711   1.912       .  S
O709       Ni716   1.918       .  S
O710       Ni711   1.929       .  S
Ni711       O715   1.908       .  S
Ni711       O713   1.916       .  S
O712       Ni717   1.926       .  S
C714        C844   1.438       .  S
C714        O715   1.265       .  A
O719        C740   1.269       .  A
O719       Ni725   1.931       .  S
O720        C729   1.267       .  A
O720       Ni743   1.910       .  S
O721        H744   0.966       .  S
O721       Ni725   1.913       .  S
O721       Ni743   1.909       .  S
O721       Ni737   1.911       .  S
C722        C778   1.434       .  S
C722        O739   1.274       .  A
C722        O731   1.275       .  A
O723        C729   1.270       .  A
O723       Ni742   1.931       .  S
O724        C726   1.268       .  A
O724       Ni742   1.910       .  S
Ni725       O728   1.927       .  S
Ni725       O730   1.905       .  S
C726        C771   1.446       .  S
C726        O736   1.273       .  A
O727        C733   1.275       .  A
O727       Ni743   1.917       .  S
O728        C733   1.275       .  A
C729        C748   1.437       .  S
O730        C732   1.266       .  A
O731       Ni742   1.925       .  S
C732        C756   1.437       .  S
C732        O738   1.270       .  A
C733        C761   1.436       .  S
H734        O735   0.967       .  S
O735       Ni743   1.912       .  S
O735       Ni737   1.907       .  S
O735       Ni742   1.910       .  S
O736       Ni737   1.939       .  S
Ni737       O741   1.908       .  S
Ni737       O739   1.916       .  S
O738       Ni743   1.931       .  S
C740        C765   1.435       .  S
C740        O741   1.267       .  A
C745        C746   1.207       .  T
C747       C1530   1.438       .  S
C747        C748   1.207       .  T
C749        C750   1.208       .  T
C751        C752   1.204       .  T
C753        C754   1.206       .  T
C755        C756   1.207       .  T
C757       C1536   1.438       .  S
C757        C758   1.205       .  T
C759        C760   1.206       .  T
C761        C762   1.206       .  T
C763        C764   1.206       .  T
C765        C766   1.206       .  T
C767        C768   1.208       .  T
C769        C770   1.208       .  T
C771        C772   1.212       .  T
C773        C774   1.211       .  T
C775        C776   1.208       .  T
C777        C778   1.205       .  T
C779        C780   1.207       .  T
C781        C782   1.206       .  T
C783        C784   1.209       .  T
C785        C786   1.210       .  T
C787        C788   1.206       .  T
C789        C790   1.210       .  T
C791        C792   1.209       .  T
C793        C794   1.207       .  T
C795        C796   1.206       .  T
C797        C798   1.207       .  T
C799       C1652   1.206       .  T
C800       C1651   1.206       .  T
C801        C802   1.206       .  T
C803        C804   1.206       .  T
C805        C806   1.206       .  T
C807        C808   1.206       .  T
C809        C810   1.208       .  T
C811        C812   1.205       .  T
C813        C814   1.212       .  T
C815        C816   1.211       .  T
C817        C818   1.209       .  T
C818       C1331   1.440       .  S
C819        C820   1.209       .  T
C821        C822   1.207       .  T
C823        C824   1.205       .  T
C825        C826   1.206       .  T
C827        C828   1.207       .  T
C829        C830   1.206       .  T
C831        C832   1.209       .  T
C833        C834   1.210       .  T
C835        C836   1.208       .  T
C837        C838   1.209       .  T
C839        C840   1.208       .  T
C841        C842   1.207       .  T
C843        C844   1.208       .  T
C845        C846   1.209       .  T
C847        C848   1.205       .  T
C849        C850   1.208       .  T
C851        C852   1.209       .  T
C853        N854   1.363       .  A
C853        N858   1.356       .  A
C853       C1277   1.440       .  S
N854        C855   1.364       .  A
C855        N856   1.356       .  A
C855       C1275   1.439       .  S
C857       C1274   1.434   1_455  S
C859        N860   1.360       .  A
C859        N864   1.361       .  A
C859       C1271   1.441       .  S
N860        C861   1.358       .  A
C861        N862   1.356       .  A
C861       C1268   1.438       .  S
N862        C863   1.356       .  A
C863        N864   1.359       .  A
C863       C1269   1.439       .  S
C865        N866   1.359       .  A
C865        N870   1.359       .  A
C865       C1264   1.440       .  S
N866        C867   1.358       .  A
C867       N1294   1.357       .  A
C867       C1265   1.439       .  S
N868       C1293   1.357       .  A
N868        C869   1.357       .  A
C869       N1296   1.359       .  A
C869       C1262   1.439       .  S
N870       C1295   1.359       .  A
C871       C1261   1.443       .  S
C871        C872   1.401       .  A
C871        C876   1.403       .  A
C872        C873   1.401       .  A
C872        H877   1.085       .  S
C873       C1273   1.438       .  S
C873        C874   1.401       .  A
C874        C875   1.401       .  A
C874        H878   1.085       .  S
C875       C1267   1.442       .  S
C875        C876   1.404       .  A
C876        H879   1.084       .  S
C880       N1307   1.356   1_545  A
C880        N885   1.361       .  A
C880       C1257   1.441       .  S
N881       C1306   1.356       .  A
N881        C882   1.354       .  A
C882        N883   1.357       .  A
C882       C1255   1.436       .  S
N883        C884   1.359       .  A
C884       N1311   1.363       .  A
C884       C1260   1.442       .  S
N885       C1310   1.363   1_545  A
C886        N887   1.358       .  A
C886        N891   1.357       .  A
C886       C1251   1.437       .  S
N887        C888   1.358       .  A
C888        N889   1.357       .  A
C888       C1253   1.437       .  S
N889        C890   1.357       .  A
C890        N891   1.357       .  A
C890       C1250   1.435       .  S
C892       C1249   1.439       .  S
C892        C893   1.401       .  A
C892        C897   1.400       .  A
C893        C894   1.401       .  A
C893        H898   1.085       .  S
C894       C1247   1.442       .  S
C894        C895   1.403       .  A
C895        C896   1.403       .  A
C895        H899   1.084       .  S
C896       C1256   1.441       .  S
C896        C897   1.400       .  A
C897        H900   1.085       .  S
C901        N902   1.356       .  A
C901        N906   1.360       .  A
C901       C1245   1.440       .  S
N902        C903   1.355       .  A
C903        N904   1.357       .  A
C903       C1248   1.437       .  S
N904        C905   1.359       .  A
C905        N906   1.362       .  A
O907        C928   1.269       .  A
O907      Ni1339   1.930   1_556  S
O908        C917   1.266       .  A
O908       Ni931   1.909       .  S
O909        H932   0.966       .  S
O909      Ni1357   1.921   1_556  S
O909      Ni1351   1.922   1_545  S
C910       C1246   1.439       .  S
C910        O927   1.270       .  A
C910        O919   1.272       .  A
O911        C917   1.269       .  A
O911       Ni930   1.930   1_554  S
O912        C914   1.267       .  A
O912      Ni1356   1.905   1_545  S
Ni913      O1333   1.930   1_544  S
Ni913      O1344   1.907   1_545  S
C914       C1254   1.437       .  S
C914        O924   1.272       .  A
O915        C921   1.268       .  A
O915      Ni1357   1.913       .  S
O916        C921   1.271       .  A
C917       C1266   1.439       .  S
O918        C920   1.268       .  A
O918      Ni1339   1.907       .  S
O919       Ni930   1.928       .  S
C920       C1272   1.440       .  S
C921       C1278   1.440       .  S
H922        O923   0.966   1_554  S
O923       Ni931   1.914   1_556  S
O923       Ni925   1.918       .  S
O923       Ni930   1.925       .  S
O924      Ni1351   1.936   1_545  S
Ni925      O1350   1.936       .  S
Ni925       O927   1.916       .  S
Ni925      O1335   1.922       .  S
O926       Ni931   1.940       .  S
C928       C1259   1.442       .  S
C928        O929   1.267       .  A
Ni930      O1338   1.905       .  S
Ni931      O1341   1.913       .  S
Ni931      O1335   1.921   1_554  S
C933        N934   1.357       .  A
C933        N938   1.365       .  A
C933       C1239   1.445       .  S
N934        C935   1.354       .  A
C935        N936   1.353       .  A
C935       C1237   1.433       .  S
N936        C937   1.356       .  A
C937        N938   1.366       .  A
C937       C1241   1.443       .  S
C939        N940   1.358       .  A
C939        N944   1.359       .  A
C939       C1235   1.438       .  S
N940        C941   1.358       .  A
C941       N1368   1.356       .  A
C941       C1659   1.436       .  S
N942       C1367   1.356       .  A
N942       C1369   1.356       .  A
C943       N1368   1.356       .  A
C943        N944   1.358       .  A
C943       C1232   1.436       .  S
C945        N946   1.355       .  A
C945       C1227   1.435       .  S
C947        N948   1.357       .  A
C947       C1225   1.435       .  S
N948        C949   1.359       .  A
C949        N950   1.359       .  A
C949       C1230   1.437       .  S
C951       C1657   1.440       .  S
C951       C1378   1.400       .  A
C951        C956   1.402   1_565  A
C952       C1377   1.400       .  A
C952        H957   1.085       .  S
C953       C1238   1.438       .  S
C953       C1380   1.401       .  A
C954       C1379   1.401       .  A
C954        H958   1.085       .  S
C955       C1226   1.439       .  S
C955        C956   1.402       .  A
C956        H959   1.085       .  S
O960        C981   1.270       .  A
O960       Ni966   1.932       .  S
O961        C970   1.266       .  A
O961       Ni984   1.906       .  S
O962        H985   0.967       .  S
O962       Ni966   1.920       .  S
O962       Ni984   1.916       .  S
O962       Ni978   1.919       .  S
C963       C1258   1.440       .  S
C963        O980   1.274       .  A
C963        O972   1.274       .  A
O964        C970   1.270       .  A
O964       Ni983   1.932       .  S
O965        C967   1.267       .  A
O965       Ni983   1.907       .  S
Ni966       O969   1.927       .  S
Ni966       O971   1.907       .  S
C967       C1252   1.436       .  S
C967        O977   1.270       .  A
O968        C974   1.273       .  A
O968       Ni984   1.924       .  S
O969        C974   1.273       .  A
C970       C1234   1.435       .  S
O971        C973   1.267       .  A
O972       Ni983   1.927       .  S
C973       C1229   1.436       .  S
C973        O979   1.271       .  A
C974       C1240   1.445       .  S
H975        O976   0.967       .  S
O976       Ni984   1.914       .  S
O976       Ni978   1.912       .  S
O976       Ni983   1.918       .  S
O977       Ni978   1.929       .  S
Ni978       O982   1.910       .  S
Ni978       O980   1.921       .  S
O979       Ni984   1.930       .  S
C981       C1243   1.440       .  S
C981        O982   1.266       .  A
C986        N987   1.357       .  A
C986        N991   1.357       .  A
C986       C1221   1.436       .  S
N987        C988   1.357       .  A
C988        N989   1.359       .  A
C988       C1219   1.436       .  S
N989        C990   1.358       .  A
C990        N991   1.358       .  A
C990       C1224   1.438       .  S
C992        N993   1.362       .  A
C992        N997   1.358       .  A
C992       C1215   1.443       .  S
N993        C994   1.363       .  A
C994        N995   1.357       .  A
C994       C1218   1.441       .  S
C996       C1213   1.436       .  S
C998        N999   1.363       .  A
C998       N1429   1.358       .  A
C998       C1212   1.442       .  S
N999       C1000   1.363       .  A
C1000      N1427   1.357       .  A
C1000      C1210   1.440       .  S
N1001      C1426   1.357       .  A
N1001      C1002   1.354       .  A
C1002      N1003   1.355       .  A
C1002      C1207   1.435   1_565  S
N1003      C1424   1.358       .  A
C1004      C1220   1.441       .  S
C1004      C1005   1.403       .  A
C1004      C1009   1.402       .  A
C1005      C1006   1.402       .  A
C1005      H1010   1.084       .  S
C1006      C1214   1.440       .  S
C1006      C1007   1.400       .  A
C1007      C1008   1.400       .  A
C1007      H1011   1.085       .  S
C1008      C1208   1.440       .  S
C1008      C1009   1.401       .  A
C1009      H1012   1.085       .  S
O1013      C1034   1.270       .  A
O1013     Ni1019   1.932       .  S
O1014      C1023   1.267       .  A
O1014     Ni1037   1.910       .  S
O1015      H1038   0.967       .  S
O1015     Ni1019   1.913       .  S
O1015     Ni1037   1.908       .  S
O1015     Ni1031   1.912       .  S
C1016      C1236   1.438       .  S
C1016      O1033   1.273       .  A
C1016      O1025   1.276       .  A
O1017      C1023   1.272       .  A
O1017     Ni1036   1.936       .  S
O1018      C1020   1.269       .  A
O1018     Ni1036   1.914       .  S
Ni1019     O1022   1.925       .  S
Ni1019     O1024   1.910       .  S
C1020      C1242   1.444       .  S
C1020      O1030   1.270       .  A
O1021      C1027   1.274       .  A
O1021     Ni1037   1.917       .  S
O1022      C1027   1.275       .  A
C1023      C1209   1.441       .  S
O1024      C1026   1.268       .  A
O1025     Ni1036   1.931       .  S
C1026      C1216   1.443       .  S
C1026      O1032   1.272       .  A
C1027      C1222   1.435       .  S
H1028      O1029   0.967       .  S
O1029     Ni1037   1.912       .  S
O1029     Ni1031   1.910       .  S
O1029     Ni1036   1.915       .  S
O1030     Ni1031   1.933       .  S
Ni1031     O1035   1.905       .  S
Ni1031     O1033   1.915       .  S
O1032     Ni1037   1.935       .  S
C1034      C1228   1.435       .  S
C1034      O1035   1.265       .  A
C1039      N1040   1.356       .  A
C1039      N1044   1.356       .  A
C1039      C1203   1.434       .  S
N1040      C1041   1.356       .  A
C1041      N1042   1.360       .  A
C1041      C1205   1.437       .  S
N1042      C1043   1.360       .  A
C1043      N1044   1.357       .  A
C1043      C1201   1.439       .  S
C1045      N1046   1.363       .  A
C1045      C1198   1.446   1_455  S
C1047      N1048   1.357       .  A
C1047      C1200   1.444       .  S
N1048      C1049   1.356       .  A
C1049      N1050   1.357       .  A
C1049      C1195   1.438       .  S
C1051      N1052   1.358       .  A
C1051      N1056   1.360       .  A
C1051      C1193   1.439       .  S
N1052      C1053   1.356       .  A
C1053      N1054   1.354       .  A
C1053      C1189   1.436       .  S
N1054      C1055   1.356       .  A
C1055      N1056   1.360       .  A
C1055      C1618   1.435       .  S
C1057      C1202   1.443       .  S
C1057      C1058   1.404       .  A
C1057      C1062   1.403       .  A
C1058      C1059   1.403       .  A
C1058      H1063   1.084       .  S
C1059      C1196   1.442       .  S
C1059      C1060   1.400       .  A
C1060      C1061   1.400       .  A
C1060      H1064   1.085       .  S
C1061      C1190   1.440       .  S
C1061      C1062   1.402       .  A
C1062      H1065   1.084       .  S
O1066      C1087   1.269       .  A
O1066     Ni1072   1.925       .  S
O1067      C1076   1.268       .  A
O1067     Ni1516   1.913   1_545  S
O1068      H1091   0.966       .  S
O1068     Ni1072   1.925       .  S
O1068     Ni1090   1.917       .  S
O1068     Ni1084   1.924       .  S
C1069      C1211   1.442       .  S
C1069      O1086   1.268       .  A
C1069      O1504   1.272       .  A
O1070      C1076   1.270       .  A
O1070     Ni1089   1.931       .  S
O1071      C1073   1.269       .  A
O1071     Ni1089   1.906       .  S
Ni1072     O1075   1.932       .  S
C1073      C1223   1.437       .  S
C1073      O1083   1.275   1_545  A
O1074      C1080   1.266       .  A
O1074     Ni1090   1.911       .  S
O1075      C1080   1.269       .  A
C1076      C1199   1.444       .  S
O1077      C1079   1.270       .  A
O1078      C1495   1.272   1_545  A
C1079      C1206   1.437       .  S
C1079      O1085   1.276   1_655  A
C1080      C1194   1.438       .  S
O1082     Ni1090   1.917       .  S
O1082     Ni1084   1.914       .  S
O1082     Ni1515   1.923       .  S
O1083     Ni1510   1.945       .  S
Ni1084     O1509   1.945       .  S
Ni1084     O1088   1.913       .  S
C1087      C1217   1.441       .  S
C1087      O1088   1.268       .  A
Ni1089     O1508   1.923   1_545  S
Ni1090     O1493   1.913       .  S
C1092      N1093   1.360       .  A
C1092      N1097   1.358       .  A
C1092      C1614   1.436       .  S
N1093      C1094   1.359       .  A
C1094      N1095   1.355       .  A
C1094      C1185   1.435       .  S
N1095      C1096   1.354       .  A
C1096      N1097   1.356       .  A
C1096      C1184   1.433       .  S
C1098      N1099   1.358       .  A
C1098      N1103   1.360       .  A
C1098      C1179   1.436       .  S
N1099      C1100   1.356       .  A
C1100      N1101   1.354       .  A
C1100      C1178   1.433       .  S
N1101      C1102   1.355       .  A
C1102      N1103   1.359       .  A
C1102      C1181   1.437       .  S
C1104      N1105   1.360       .  A
C1104      N1109   1.357       .  A
N1105      C1106   1.361       .  A
C1106      N1107   1.358       .  A
C1106      C1176   1.440       .  S
N1107      C1108   1.356       .  A
C1108      N1109   1.355       .  A
C1108      C1171   1.437       .  S
C1110      C1111   1.400       .  A
C1110      C1115   1.403       .  A
C1111      C1112   1.399       .  A
C1111      H1542   1.085       .  S
C1112      C1603   1.438       .  S
C1112      C1113   1.401       .  A
C1113      C1114   1.401       .  A
C1113      H1117   1.085       .  S
C1114      C1172   1.442       .  S
C1114      C1115   1.403       .  A
H1116      C1537   1.085       .  S
O1119      C1140   1.270       .  A
O1119     Ni1125   1.934       .  S
O1120      C1129   1.266       .  A
O1120     Ni1143   1.909       .  S
O1121      H1144   0.966       .  S
O1121     Ni1125   1.919       .  S
O1121     Ni1143   1.914       .  S
O1121     Ni1137   1.913       .  S
C1122      C1263   1.439       .  S
C1122      O1139   1.273       .  A
C1122      O1131   1.275       .  A
O1123      C1129   1.270       .  A
O1123     Ni1142   1.934       .  S
O1124      C1126   1.268       .  A
O1124     Ni1142   1.911       .  S
Ni1125     O1128   1.927       .  S
Ni1125     O1130   1.908       .  S
C1126      C1276   1.440       .  S
C1126      O1136   1.269       .  A
O1127      C1133   1.272       .  A
O1127     Ni1143   1.913       .  S
O1128      C1133   1.274       .  A
C1129      C1175   1.439       .  S
O1130      C1132   1.267       .  A
O1131     Ni1142   1.929       .  S
C1132      C1186   1.435       .  S
C1132      O1138   1.269       .  A
C1133      C1180   1.435       .  S
H1134      O1135   0.966       .  S
O1135     Ni1143   1.911       .  S
O1135     Ni1137   1.912       .  S
O1135     Ni1142   1.918       .  S
O1136     Ni1137   1.929       .  S
Ni1137     O1141   1.908       .  S
Ni1137     O1139   1.916       .  S
O1138     Ni1143   1.926       .  S
C1140      C1270   1.438       .  S
C1140      O1141   1.265       .  A
O1145      C1166   1.269       .  A
O1145     Ni1151   1.931       .  S
O1146      C1155   1.267       .  A
O1146     Ni1169   1.910       .  S
O1147      H1170   0.966       .  S
O1147     Ni1151   1.913       .  S
O1147     Ni1169   1.909       .  S
O1147     Ni1163   1.911       .  S
C1148      C1204   1.434       .  S
C1148      O1165   1.274       .  A
C1148      O1157   1.275       .  A
O1149      C1155   1.270       .  A
O1149     Ni1168   1.931       .  S
O1150      C1152   1.268       .  A
O1150     Ni1168   1.910       .  S
Ni1151     O1154   1.927       .  S
Ni1151     O1156   1.905       .  S
C1152      C1197   1.446       .  S
C1152      O1162   1.273       .  A
O1153      C1159   1.275       .  A
O1153     Ni1169   1.917       .  S
O1154      C1159   1.275       .  A
C1155      C1174   1.437       .  S
O1156      C1158   1.266       .  A
O1157     Ni1168   1.925       .  S
C1158      C1182   1.437       .  S
C1158      O1164   1.270       .  A
C1159      C1187   1.436       .  S
H1160      O1161   0.967       .  S
O1161     Ni1169   1.912       .  S
O1161     Ni1163   1.907       .  S
O1161     Ni1168   1.910       .  S
O1162     Ni1163   1.939       .  S
Ni1163     O1167   1.908       .  S
Ni1163     O1165   1.916       .  S
O1164     Ni1169   1.931       .  S
C1166      C1191   1.435       .  S
C1166      O1167   1.267       .  A
C1171      C1172   1.207       .  T
C1173      C1174   1.207   1_455  T
C1175      C1176   1.208       .  T
C1177      C1538   1.438       .  S
C1177      C1178   1.204       .  T
C1179      C1180   1.206       .  T
C1181      C1182   1.207       .  T
C1183      C1184   1.205       .  T
C1185      C1186   1.206       .  T
C1187      C1188   1.206       .  T
C1188      C1518   1.436       .  S
C1189      C1190   1.206       .  T
C1191      C1192   1.206       .  T
C1192      C1481   1.435       .  S
C1193      C1194   1.208       .  T
C1195      C1196   1.208       .  T
C1197      C1198   1.212       .  T
C1199      C1200   1.211       .  T
C1201      C1202   1.208       .  T
C1203      C1204   1.205       .  T
C1205      C1206   1.207       .  T
C1207      C1208   1.206       .  T
C1209      C1210   1.209       .  T
C1211      C1212   1.210       .  T
C1213      C1214   1.206       .  T
C1215      C1216   1.210       .  T
C1217      C1218   1.209       .  T
C1219      C1220   1.207       .  T
C1221      C1222   1.206       .  T
C1223      C1224   1.207       .  T
C1227      C1228   1.206       .  T
C1229      C1230   1.206       .  T
C1231      C1377   1.440       .  S
C1231      C1232   1.206       .  T
C1233      C1367   1.436   1_545  S
C1233      C1234   1.206       .  T
C1235      C1236   1.208       .  T
C1237      C1238   1.205       .  T
C1239      C1240   1.212       .  T
C1241      C1242   1.211       .  T
C1243      C1244   1.209       .  T
C1245      C1246   1.209       .  T
C1247      C1248   1.207       .  T
C1249      C1250   1.205       .  T
C1251      C1252   1.206       .  T
C1253      C1254   1.207       .  T
C1255      C1256   1.206       .  T
C1257      C1258   1.209       .  T
C1259      C1260   1.210       .  T
C1261      C1262   1.208       .  T
C1263      C1264   1.209       .  T
C1265      C1266   1.208       .  T
C1267      C1268   1.207       .  T
C1269      C1270   1.208       .  T
C1271      C1272   1.209       .  T
C1273      C1274   1.205       .  T
C1275      C1276   1.208       .  T
C1277      C1278   1.209       .  T
C1279      N1280   1.363       .  A
C1279      N1284   1.356       .  A
C1279      C1703   1.440       .  S
N1280      C1281   1.364       .  A
C1281      N1282   1.356       .  A
C1281      C1701   1.439       .  S
C1283      C1700   1.434   1_455  S
C1285      N1286   1.360       .  A
C1285      N1290   1.361       .  A
C1285      C1697   1.441       .  S
N1286      C1287   1.358       .  A
C1287      N1288   1.356       .  A
C1287      C1694   1.438       .  S
N1288      C1289   1.356       .  A
C1289      N1290   1.359       .  A
C1289      C1695   1.439       .  S
C1291      N1292   1.359       .  A
C1291      N1296   1.359   1_565  A
C1291      C1690   1.440       .  S
N1292      C1293   1.358   1_565  A
C1293      C1691   1.439       .  S
N1294      C1295   1.357       .  A
C1295      C1688   1.439       .  S
C1297      C1687   1.443       .  S
C1297      C1298   1.401       .  A
C1297      C1302   1.403       .  A
C1298      C1299   1.401       .  A
C1298      H1303   1.085       .  S
C1299      C1699   1.438       .  S
C1299      C1300   1.401       .  A
C1300      C1301   1.401       .  A
C1300      H1304   1.085       .  S
C1301      C1693   1.442       .  S
C1301      C1302   1.404       .  A
C1302      H1305   1.084       .  S
C1306      N1311   1.361       .  A
C1306      C1683   1.441       .  S
N1307      C1308   1.354       .  A
C1308      N1309   1.357       .  A
C1308      C1681   1.436       .  S
N1309      C1310   1.359       .  A
C1310      C1686   1.442       .  S
C1312      N1313   1.358       .  A
C1312      N1317   1.357       .  A
C1312      C1677   1.437       .  S
N1313      C1314   1.358       .  A
C1314      N1315   1.357       .  A
C1314      C1679   1.437       .  S
N1315      C1316   1.357       .  A
C1316      N1317   1.357       .  A
C1316      C1676   1.435       .  S
C1318      C1675   1.439       .  S
C1318      C1319   1.401       .  A
C1318      C1323   1.400       .  A
C1319      C1320   1.401       .  A
C1319      H1324   1.085       .  S
C1320      C1673   1.442       .  S
C1320      C1321   1.403       .  A
C1321      C1322   1.403       .  A
C1321      H1325   1.084       .  S
C1322      C1682   1.441       .  S
C1322      C1323   1.400       .  A
C1323      H1326   1.085       .  S
C1327      N1328   1.356       .  A
C1327      N1332   1.360       .  A
C1327      C1671   1.440       .  S
N1328      C1329   1.355       .  A
C1329      N1330   1.357       .  A
C1329      C1674   1.437       .  S
N1330      C1331   1.359       .  A
C1331      N1332   1.362       .  A
O1333      C1354   1.269       .  A
O1334      C1343   1.266       .  A
O1334     Ni1357   1.909   1_565  S
O1335      H1358   0.966       .  S
C1336      C1672   1.439       .  S
C1336      O1353   1.270       .  A
C1336      O1345   1.272       .  A
O1337      C1343   1.269       .  A
O1337     Ni1356   1.930   1_554  S
O1338      C1340   1.267       .  A
C1340      C1680   1.437       .  S
C1340      O1350   1.272       .  A
O1341      C1347   1.268       .  A
O1342      C1347   1.271       .  A
C1343      C1692   1.439   1_565  S
O1344      C1346   1.268       .  A
O1345     Ni1356   1.928       .  S
C1346      C1698   1.440       .  S
C1347      C1704   1.440       .  S
H1348      O1349   0.966   1_554  S
O1349     Ni1357   1.914   1_566  S
O1349     Ni1351   1.918       .  S
O1349     Ni1356   1.925       .  S
Ni1351     O1353   1.916       .  S
O1352     Ni1357   1.940   1_565  S
C1354      C1685   1.442       .  S
C1354      O1355   1.267       .  A
C1359      N1360   1.357       .  A
C1359      N1364   1.365       .  A
C1359      C1665   1.445       .  S
N1360      C1361   1.354       .  A
C1361      N1362   1.353       .  A
C1361      C1663   1.433       .  S
N1362      C1363   1.356       .  A
C1363      N1364   1.366       .  A
C1363      C1667   1.443       .  S
C1365      N1366   1.358       .  A
C1365      N1370   1.359       .  A
C1365      C1661   1.438       .  S
N1366      C1367   1.358       .  A
C1369      N1370   1.358       .  A
C1369      C1658   1.436       .  S
C1371      N1372   1.355       .  A
C1371      C1653   1.435       .  S
C1373      N1374   1.357       .  A
C1373      C1651   1.435       .  S
N1374      C1375   1.359       .  A
C1375      N1376   1.359       .  A
C1375      C1656   1.437       .  S
C1377      C1382   1.402       .  A
C1378      H1383   1.085       .  S
C1379      C1664   1.438       .  S
C1380      H1384   1.085       .  S
C1381      C1652   1.439       .  S
C1381      C1382   1.402       .  A
C1382      H1385   1.085       .  S
O1386      C1407   1.270       .  A
O1386     Ni1392   1.932       .  S
O1387      C1396   1.266       .  A
O1387     Ni1410   1.906       .  S
O1388      H1411   0.967       .  S
O1388     Ni1392   1.920       .  S
O1388     Ni1410   1.916       .  S
O1388     Ni1404   1.919       .  S
C1389      C1684   1.440       .  S
C1389      O1406   1.274       .  A
C1389      O1398   1.274       .  A
O1390      C1396   1.270       .  A
O1390     Ni1409   1.932       .  S
O1391      C1393   1.267       .  A
O1391     Ni1409   1.907       .  S
Ni1392     O1395   1.927       .  S
Ni1392     O1397   1.907       .  S
C1393      C1678   1.436       .  S
C1393      O1403   1.270       .  A
O1394      C1400   1.273       .  A
O1394     Ni1410   1.924       .  S
O1395      C1400   1.273       .  A
C1396      C1660   1.435       .  S
O1397      C1399   1.267       .  A
O1398     Ni1409   1.927       .  S
C1399      C1655   1.436       .  S
C1399      O1405   1.271       .  A
C1400      C1666   1.445       .  S
H1401      O1402   0.967       .  S
O1402     Ni1410   1.914       .  S
O1402     Ni1404   1.912       .  S
O1402     Ni1409   1.918       .  S
O1403     Ni1404   1.929       .  S
Ni1404     O1408   1.910       .  S
Ni1404     O1406   1.921       .  S
O1405     Ni1410   1.930       .  S
C1407      C1669   1.440       .  S
C1407      O1408   1.266       .  A
C1412      N1413   1.357       .  A
C1412      N1417   1.357       .  A
C1412      C1647   1.436       .  S
N1413      C1414   1.357       .  A
C1414      N1415   1.359       .  A
C1414      C1645   1.436       .  S
N1415      C1416   1.358       .  A
C1416      N1417   1.358       .  A
C1416      C1650   1.438       .  S
C1418      N1419   1.362       .  A
C1418      N1423   1.358       .  A
C1418      C1641   1.443       .  S
N1419      C1420   1.363       .  A
C1420      N1421   1.357       .  A
C1420      C1644   1.441       .  S
C1422      C1639   1.436       .  S
C1424      N1425   1.363       .  A
C1424      C1638   1.442       .  S
N1425      C1426   1.363       .  A
C1426      C1636   1.440       .  S
N1427      C1428   1.354       .  A
C1428      N1429   1.355       .  A
C1428      C1633   1.435       .  S
C1430      C1646   1.441       .  S
C1430      C1431   1.403       .  A
C1430      C1435   1.402       .  A
C1431      C1432   1.402       .  A
C1431      H1436   1.084       .  S
C1432      C1640   1.440       .  S
C1432      C1433   1.400       .  A
C1433      C1434   1.400       .  A
C1433      H1437   1.085       .  S
C1434      C1634   1.440       .  S
C1434      C1435   1.401       .  A
C1435      H1438   1.085       .  S
O1439      C1460   1.270       .  A
O1439     Ni1445   1.932       .  S
O1440      C1449   1.267       .  A
O1440     Ni1463   1.910       .  S
O1441      H1464   0.967       .  S
O1441     Ni1445   1.913       .  S
O1441     Ni1463   1.908       .  S
O1441     Ni1457   1.912       .  S
C1442      C1662   1.438       .  S
C1442      O1459   1.273       .  A
C1442      O1451   1.276       .  A
O1443      C1449   1.272       .  A
O1443     Ni1462   1.936       .  S
O1444      C1446   1.269       .  A
O1444     Ni1462   1.914       .  S
Ni1445     O1448   1.925       .  S
Ni1445     O1450   1.910       .  S
C1446      C1668   1.444       .  S
C1446      O1456   1.270       .  A
O1447      C1453   1.274       .  A
O1447     Ni1463   1.917       .  S
O1448      C1453   1.275       .  A
C1449      C1635   1.441       .  S
O1450      C1452   1.268       .  A
O1451     Ni1462   1.931       .  S
C1452      C1642   1.443       .  S
C1452      O1458   1.272       .  A
C1453      C1648   1.435       .  S
H1454      O1455   0.967       .  S
O1455     Ni1463   1.912       .  S
O1455     Ni1457   1.910       .  S
O1455     Ni1462   1.915       .  S
O1456     Ni1457   1.933       .  S
Ni1457     O1461   1.905       .  S
Ni1457     O1459   1.915       .  S
O1458     Ni1463   1.935       .  S
C1460      C1654   1.435       .  S
C1460      O1461   1.265       .  A
C1465      N1466   1.356       .  A
C1465      N1470   1.356       .  A
C1465      C1629   1.434       .  S
N1466      C1467   1.356       .  A
C1467      N1468   1.360       .  A
C1467      C1631   1.437       .  S
N1468      C1469   1.360       .  A
C1469      N1470   1.357       .  A
C1469      C1627   1.439       .  S
C1471      N1472   1.363       .  A
C1471      C1624   1.446   1_455  S
C1473      N1474   1.357       .  A
C1473      C1626   1.444       .  S
N1474      C1475   1.356       .  A
C1475      N1476   1.357       .  A
C1475      C1621   1.438       .  S
C1477      N1478   1.358       .  A
C1477      N1482   1.360   1_565  A
C1477      C1619   1.439       .  S
N1478      C1479   1.356       .  A
C1479      N1480   1.354       .  A
C1479      C1615   1.436       .  S
N1480      C1481   1.356   1_565  A
C1481      N1482   1.360       .  A
C1483      C1628   1.443       .  S
C1483      C1484   1.404       .  A
C1483      C1488   1.403       .  A
C1484      C1485   1.403       .  A
C1484      H1489   1.084       .  S
C1485      C1622   1.442       .  S
C1485      C1486   1.400       .  A
C1486      C1487   1.400       .  A
C1486      H1490   1.085       .  S
C1487      C1616   1.440       .  S
C1487      C1488   1.402       .  A
C1488      H1491   1.084       .  S
O1492      C1513   1.269       .  A
O1492     Ni1498   1.925       .  S
O1493      C1502   1.268       .  A
O1494      H1517   0.966       .  S
O1494     Ni1498   1.925       .  S
O1494     Ni1516   1.917       .  S
O1494     Ni1510   1.924       .  S
C1495      C1637   1.442       .  S
C1495      O1512   1.268       .  A
O1496      C1502   1.270       .  A
O1496     Ni1515   1.931       .  S
O1497      C1499   1.269       .  A
O1497     Ni1515   1.906       .  S
Ni1498     O1501   1.932       .  S
C1499      C1649   1.437       .  S
C1499      O1509   1.275       .  A
O1500      C1506   1.266   1_545  A
O1500     Ni1516   1.911   1_545  S
O1501      C1506   1.269       .  A
C1502      C1625   1.444       .  S
O1503      C1505   1.270       .  A
C1505      C1632   1.437       .  S
C1505      O1511   1.276   1_655  A
C1506      C1620   1.438       .  S
O1508     Ni1516   1.917       .  S
O1508     Ni1510   1.914       .  S
Ni1510     O1514   1.913       .  S
C1513      C1643   1.441       .  S
C1513      O1514   1.268       .  A
C1518      N1519   1.360   1_545  A
C1518      N1523   1.358       .  A
N1519      C1520   1.359       .  A
C1520      N1521   1.355       .  A
C1520      C1611   1.435       .  S
N1521      C1522   1.354       .  A
C1522      N1523   1.356   1_565  A
C1522      C1610   1.433       .  S
C1524      N1525   1.358       .  A
C1524      N1529   1.360       .  A
C1524      C1605   1.436       .  S
N1525      C1526   1.356       .  A
C1526      N1527   1.354       .  A
C1526      C1604   1.433       .  S
N1527      C1528   1.355       .  A
C1528      N1529   1.359       .  A
C1528      C1607   1.437       .  S
C1530      N1531   1.360       .  A
C1530      N1535   1.357       .  A
N1531      C1532   1.361       .  A
C1532      N1533   1.358       .  A
C1532      C1602   1.440       .  S
N1533      C1534   1.356       .  A
C1534      N1535   1.355       .  A
C1534      C1597   1.437       .  S
C1536      C1537   1.400   1_565  A
C1536      C1541   1.403       .  A
C1537      C1538   1.399       .  A
C1538      C1539   1.401   1_545  A
C1539      C1540   1.401       .  A
C1539      H1543   1.085       .  S
C1540      C1598   1.442       .  S
C1540      C1541   1.403       .  A
O1545      C1566   1.270       .  A
O1545     Ni1551   1.934       .  S
O1546      C1555   1.266       .  A
O1546     Ni1569   1.909       .  S
O1547      H1570   0.966       .  S
O1547     Ni1551   1.919       .  S
O1547     Ni1569   1.914       .  S
O1547     Ni1563   1.913       .  S
C1548      C1689   1.439       .  S
C1548      O1565   1.273       .  A
C1548      O1557   1.275       .  A
O1549      C1555   1.270       .  A
O1549     Ni1568   1.934       .  S
O1550      C1552   1.268       .  A
O1550     Ni1568   1.911       .  S
Ni1551     O1554   1.927       .  S
Ni1551     O1556   1.908       .  S
C1552      C1702   1.440       .  S
C1552      O1562   1.269       .  A
O1553      C1559   1.272       .  A
O1553     Ni1569   1.913       .  S
O1554      C1559   1.274       .  A
C1555      C1601   1.439       .  S
O1556      C1558   1.267       .  A
O1557     Ni1568   1.929       .  S
C1558      C1612   1.435       .  S
C1558      O1564   1.269       .  A
C1559      C1606   1.435       .  S
H1560      O1561   0.966       .  S
O1561     Ni1569   1.911       .  S
O1561     Ni1563   1.912       .  S
O1561     Ni1568   1.918       .  S
O1562     Ni1563   1.929       .  S
Ni1563     O1567   1.908       .  S
Ni1563     O1565   1.916       .  S
O1564     Ni1569   1.926       .  S
C1566      C1696   1.438       .  S
C1566      O1567   1.265       .  A
O1571      C1592   1.269       .  A
O1571     Ni1577   1.931       .  S
O1572      C1581   1.267       .  A
O1572     Ni1595   1.910       .  S
O1573      H1596   0.966       .  S
O1573     Ni1577   1.913       .  S
O1573     Ni1595   1.909       .  S
O1573     Ni1589   1.911       .  S
C1574      C1630   1.434       .  S
C1574      O1591   1.274       .  A
C1574      O1583   1.275       .  A
O1575      C1581   1.270       .  A
O1575     Ni1594   1.931       .  S
O1576      C1578   1.268       .  A
O1576     Ni1594   1.910       .  S
Ni1577     O1580   1.927       .  S
Ni1577     O1582   1.905       .  S
C1578      C1623   1.446       .  S
C1578      O1588   1.273       .  A
O1579      C1585   1.275       .  A
O1579     Ni1595   1.917       .  S
O1580      C1585   1.275       .  A
C1581      C1600   1.437       .  S
O1582      C1584   1.266       .  A
O1583     Ni1594   1.925       .  S
C1584      C1608   1.437       .  S
C1584      O1590   1.270       .  A
C1585      C1613   1.436       .  S
H1586      O1587   0.967       .  S
O1587     Ni1595   1.912       .  S
O1587     Ni1589   1.907       .  S
O1587     Ni1594   1.910       .  S
O1588     Ni1589   1.939       .  S
Ni1589     O1593   1.908       .  S
Ni1589     O1591   1.916       .  S
O1590     Ni1595   1.931       .  S
C1592      C1617   1.435       .  S
C1592      O1593   1.267       .  A
C1597      C1598   1.207       .  T
C1599      C1600   1.207   1_455  T
C1601      C1602   1.208       .  T
C1603      C1604   1.204       .  T
C1605      C1606   1.206       .  T
C1607      C1608   1.207       .  T
C1609      C1610   1.205       .  T
C1611      C1612   1.206       .  T
C1613      C1614   1.206       .  T
C1615      C1616   1.206       .  T
C1617      C1618   1.206       .  T
C1619      C1620   1.208       .  T
C1621      C1622   1.208       .  T
C1623      C1624   1.212       .  T
C1625      C1626   1.211       .  T
C1627      C1628   1.208       .  T
C1629      C1630   1.205       .  T
C1631      C1632   1.207       .  T
C1633      C1634   1.206       .  T
C1635      C1636   1.209       .  T
C1637      C1638   1.210       .  T
C1639      C1640   1.206       .  T
C1641      C1642   1.210       .  T
C1643      C1644   1.209       .  T
C1645      C1646   1.207       .  T
C1647      C1648   1.206       .  T
C1649      C1650   1.207       .  T
C1653      C1654   1.206       .  T
C1655      C1656   1.206       .  T
C1657      C1658   1.206       .  T
C1659      C1660   1.206       .  T
C1661      C1662   1.208       .  T
C1663      C1664   1.205       .  T
C1665      C1666   1.212       .  T
C1667      C1668   1.211       .  T
C1669      C1670   1.209       .  T
C1671      C1672   1.209       .  T
C1673      C1674   1.207       .  T
C1675      C1676   1.205       .  T
C1677      C1678   1.206       .  T
C1679      C1680   1.207       .  T
C1681      C1682   1.206       .  T
C1683      C1684   1.209       .  T
C1685      C1686   1.210       .  T
C1687      C1688   1.208       .  T
C1689      C1690   1.209       .  T
C1691      C1692   1.208       .  T
C1693      C1694   1.207       .  T
C1695      C1696   1.208       .  T
C1697      C1698   1.209       .  T
C1699      C1700   1.205       .  T
C1701      C1702   1.208       .  T
C1703      C1704   1.209       .  T
