geometry optimzed in LAMMPS
_audit_creation_date              2020-12-01 
_audit_creation_method            'lammps2cif' 
_symmetry_space_group_name_H-M    'P1' 
_symmetry_Int_Tables_number       1 
_symmetry_cell_setting            triclinic 
loop_ 
_symmetry_equiv_pos_as_xyz 
  x,y,z 
_cell_length_a                    35.00212412 
_cell_length_b                    26.665581672222086 
_cell_length_c                    36.61497222386025 
_cell_angle_alpha                 89.88755841729248 
_cell_angle_beta                  90.15213569709758 
_cell_angle_gamma                 90.50925329104764 
loop_ 
_atom_site_label 
_atom_site_type_symbol 
_atom_site_fract_x 
_atom_site_fract_y 
_atom_site_fract_z 
_atom_site_charge 
O1          O  0.61021237  0.45020181  0.93286658    -0.72800
O2          O  0.60945483  0.42045080  0.04061551    -0.73800
O3          O  0.55076202  0.43471953  0.98630773    -0.62400
O4          O  0.66630622  0.43571116  0.98763350    -0.70800
O5          O  0.66598330  0.51783695  0.99750872    -0.70400
O6          O  0.55060500  0.51596801  0.99915300    -0.61600
O7          O  0.60987252  0.50219533  0.05230283    -0.74100
O8          O  0.60782194  0.53174748  0.94456994    -0.72900
Cu9        Cu  0.60890103  0.43241079  0.98640127     1.04600
Cu10       Cu  0.60837781  0.51974787  0.99879817     1.04300
C11         C  0.61037950  0.49570418  0.92178704     0.93400
C12         C  0.61122358  0.45674865  0.06328629     0.92500
C13         C  0.53242249  0.47509419  0.99273531     0.84700
C14         C  0.68422983  0.47704281  0.99276926     0.91000
O15         O  0.41387546  0.44885910  0.93049685    -0.72800
O16         O  0.41235738  0.42037781  0.03836881    -0.73800
O17         O  0.35595888  0.43476395  0.98411713    -0.62400
O18         O  0.47156507  0.43440310  0.98527441    -0.70800
O19         O  0.47200660  0.51538015  0.99897737    -0.70400
O20         O  0.35669635  0.51702163  0.99326457    -0.61600
O21         O  0.41042054  0.50177864  0.05025862    -0.74100
O22         O  0.41723412  0.53034505  0.94226798    -0.72900
Cu23       Cu  0.41355498  0.43178887  0.98416765     1.04600
Cu24       Cu  0.41423693  0.51898283  0.99660178     1.04300
C25         C  0.41564079  0.49425963  0.91933347     0.93400
C26         C  0.40972678  0.45625858  0.06131417     0.92500
C27         C  0.33820463  0.47599913  0.98843944     0.84700
C28         C  0.49004445  0.47485583  0.99242174     0.91000
C29         C  0.42548318  0.62344026  0.66504723     0.86600
C30         C  0.46875529  0.62140508  0.67008550    -0.53600
C31         C  0.49043191  0.64494157  0.64386621     0.09600
C32         C  0.46545283  0.67093400  0.61470055     0.20500
C33         C  0.41650553  0.67921602  0.66107770    -0.54300
C34         C  0.43890098  0.70581546  0.63708648     0.09700
C35         C  0.41831671  0.60365680  0.62670124    -0.53800
C36         C  0.43872387  0.62812201  0.60011228     0.10200
H37         H  0.48022257  0.60147068  0.69328799     0.14800
H38         H  0.48171677  0.69053753  0.59296214    -0.02700
H39         H  0.39274907  0.69580975  0.67489101     0.15100
H40         H  0.39783949  0.57400261  0.62065063     0.14900
C41         C  0.42936195  0.34171180  0.31923501     0.86600
C42         C  0.47290428  0.34439571  0.31695956    -0.53600
C43         C  0.49261767  0.32134497  0.34468458     0.09600
C44         C  0.46538034  0.29719101  0.37335553     0.20500
C45         C  0.42196240  0.28531654  0.32218139    -0.54300
C46         C  0.43987597  0.26092365  0.35055291     0.09700
C47         C  0.41977179  0.36283980  0.35657451    -0.53800
C48         C  0.43830506  0.34024928  0.38496437     0.10200
H49         H  0.48614349  0.36278017  0.29392396     0.14800
H50         H  0.48009325  0.27909668  0.39663851     0.00500
H51         H  0.40796222  0.26594221  0.30027120     0.15100
H52         H  0.39983585  0.39339096  0.36034001     0.14900
N53         N  0.42503157  0.55457185  0.51949913    -0.27100
N54         N  0.39251827  0.57932542  0.52107325    -0.35000
C55         C  0.39593518  0.61612409  0.54590501     0.01200
C56         C  0.43206371  0.61473775  0.56145388     0.07200
C57         C  0.44964942  0.57498634  0.54385156    -0.05900
H58         H  0.37185278  0.63664631  0.55650815     0.07900
H59         H  0.47612500  0.55759161  0.55208394     0.09100
Cu60       Cu  0.34049047  0.55196247  0.50146641     0.44200
Cu61       Cu  0.43055848  0.48655107  0.49131769     0.42000
Cu62       Cu  0.33965249  0.42100534  0.48140651     0.43900
N63         N  0.29016783  0.51078564  0.49445567    -0.34500
N64         N  0.28987774  0.46174867  0.48921253    -0.28800
C65         C  0.25338552  0.44529913  0.48793288    -0.04900
C66         C  0.22955101  0.48603221  0.49234101     0.07300
C67         C  0.25386484  0.52694012  0.49636341     0.01100
H68         H  0.24483872  0.40669493  0.48348636     0.08800
H69         H  0.24577138  0.56547299  0.50098333     0.07900
N70         N  0.39116367  0.39366088  0.46175595    -0.36000
N71         N  0.42409756  0.41823294  0.46347667    -0.28100
C72         C  0.44867173  0.39685536  0.43990736    -0.03400
C73         C  0.43056484  0.35664978  0.42274590     0.05200
C74         C  0.39416901  0.35616229  0.43750488     0.03300
H75         H  0.47576600  0.41345860  0.43210140     0.08400
H76         H  0.36993092  0.33510602  0.42707978     0.07300
C77         C  0.43654720  0.84047865  0.67563551     0.86600
C78         C  0.42428007  0.78654353  0.66897474    -0.53600
C79         C  0.44225676  0.76227941  0.64078301     0.09600
C80         C  0.46984759  0.79801439  0.61946353     0.20500
C81         C  0.47974690  0.83949081  0.67762473    -0.54300
C82         C  0.49823655  0.81843072  0.64858493     0.09700
C83         C  0.42796534  0.86635478  0.63924434    -0.53800
C84         C  0.44498844  0.84431779  0.60979667     0.10200
H85         H  0.40353862  0.76969775  0.68701945     0.14800
H86         H  0.48361687  0.78052736  0.59549099     0.00500
H87         H  0.49350436  0.85532394  0.70139217     0.15100
H88         H  0.40896900  0.89792497  0.63602481     0.14900
C89         C  0.42668469  0.12019487  0.32782901     0.86600
C90         C  0.41761544  0.17623369  0.32921985    -0.53600
C91         C  0.43874487  0.20424086  0.35353246     0.09600
C92         C  0.46510658  0.17094864  0.37765117     0.20500
C93         C  0.47001869  0.11941331  0.32357444    -0.54300
C94         C  0.49095728  0.14422745  0.34969475     0.09700
C95         C  0.41915671  0.10207632  0.36649748    -0.53800
C96         C  0.43846112  0.12853356  0.39282170     0.10200
H97         H  0.39671256  0.19260632  0.31160680     0.14800
H98         H  0.48088683  0.19174788  0.39914351     0.00500
H99         H  0.48185956  0.10044559  0.30069539     0.15100
H100        H  0.39931076  0.07174141  0.37276275     0.14900
N101        N  0.42710551  0.92629247  0.53416226    -0.27100
N102        N  0.39498390  0.89987907  0.53542706    -0.35000
C103        C  0.39960335  0.86105959  0.55839237     0.01200
C104        C  0.43622196  0.86262501  0.57272709     0.07200
C105        C  0.45272469  0.90489562  0.55681676    -0.05900
H106        H  0.37625711  0.83795973  0.56833307     0.07900
H107        H  0.47951634  0.92232209  0.56473863     0.09100
Cu108      Cu  0.34240288  0.92514947  0.51670586     0.44200
Cu109      Cu  0.43163787  0.99542387  0.50720319     0.42000
Cu110      Cu  0.34016578  0.05528815  0.49343098     0.43900
N111        N  0.29164988  0.96384747  0.50913236    -0.34500
N112        N  0.29093442  0.01265010  0.50277185    -0.28800
C113        C  0.25432485  0.02758736  0.50124228    -0.04900
C114        C  0.23084757  0.98614480  0.50660648     0.07300
C115        C  0.25548412  0.94630748  0.51144535     0.01100
H116        H  0.24542301  0.06563378  0.49578707     0.08800
H117        H  0.24773566  0.90761411  0.51676040     0.07900
N118        N  0.39150051  0.08360461  0.47287773    -0.36000
N119        N  0.42478675  0.06106152  0.47649235    -0.28100
C120        C  0.44932943  0.08064815  0.45180031    -0.03400
C121        C  0.43084172  0.11748917  0.43172118     0.05200
C122        C  0.39426480  0.11809947  0.44618799     0.03300
H123        H  0.47658786  0.06417848  0.44518888     0.08400
H124        H  0.36980722  0.13629309  0.43401380     0.07300
O125        O  0.55654732  0.94638429  0.00003556    -0.72800
O126        O  0.67215250  0.95036298  0.99807701    -0.73800
O127        O  0.61545293  0.96039527  0.05336143    -0.62400
O128        O  0.61506921  0.93607475  0.94479329    -0.70800
O129        O  0.61349418  0.01800702  0.93411667    -0.70400
O130        O  0.61389541  0.04211463  0.04289925    -0.61600
O131        O  0.67110221  0.03252781  0.98843190    -0.74100
O132        O  0.55544954  0.02827416  0.98950067    -0.72900
Cu133      Cu  0.61465038  0.94546593  0.99936977     1.04600
Cu134      Cu  0.61327393  0.03305462  0.98835647     1.04300
C135        C  0.53774697  0.98694227  0.99566529     0.93400
C136        C  0.68976785  0.99195994  0.99285800     0.92500
C137        C  0.61526399  0.00535373  0.06537850     0.84700
C138        C  0.61595313  0.97298018  0.92246180     0.91000
O139        O  0.41932938  0.95623730  0.06013049    -0.72800
O140        O  0.41777589  0.93238370  0.95174597    -0.73800
O141        O  0.47744411  0.94526784  0.00453965    -0.62400
O142        O  0.36178106  0.94224766  0.00621402    -0.70800
O143        O  0.36123015  0.02459757  0.99736736    -0.70400
O144        O  0.47686321  0.02700011  0.99329000    -0.61600
O145        O  0.41680912  0.01433127  0.94110792    -0.74100
O146        O  0.42043026  0.03810157  0.04945130    -0.72900
Cu147      Cu  0.41937891  0.94120137  0.00605283     1.04600
Cu148      Cu  0.41899193  0.02885965  0.99502399     1.04300
C149        C  0.41881058  0.00135498  0.07189038     0.93400
C150        C  0.41561865  0.96924202  0.92945702     0.92500
C151        C  0.49540145  0.98631683  0.99792546     0.84700
C152        C  0.34335278  0.98300062  0.00203789     0.91000
C153        C  0.60539401  0.83615953  0.67133211     0.86600
C154        C  0.56238054  0.84107926  0.67375036    -0.53600
C155        C  0.54127003  0.81818187  0.64705976     0.09600
C156        C  0.56692533  0.79299669  0.61812795     0.20500
C157        C  0.61330909  0.78046788  0.66681735    -0.54300
C158        C  0.59192376  0.75604700  0.64069955     0.09700
C159        C  0.61500859  0.85781388  0.63380814    -0.53800
C160        C  0.59522711  0.83553103  0.60568742     0.10200
H161        H  0.55072731  0.86285254  0.69582679     0.14800
H162        H  0.55091265  0.77526296  0.59537356     0.00500
H163        H  0.63428838  0.76296075  0.68417085     0.15100
H164        H  0.63599259  0.88728893  0.62918697     0.14900
C165        C  0.59677336  0.12126354  0.32377464     0.86600
C166        C  0.55323346  0.12019825  0.32147897    -0.53600
C167        C  0.53404558  0.14389933  0.34903560     0.09600
C168        C  0.56181715  0.16876769  0.37692631     0.20500
C169        C  0.60522532  0.17738516  0.32539612    -0.54300
C170        C  0.58762359  0.20350216  0.35302276     0.09700
C171        C  0.60620660  0.10117445  0.36153477    -0.53800
C172        C  0.58831217  0.12535275  0.38944295     0.10200
H173        H  0.53990273  0.10280781  0.29847740     0.14800
H174        H  0.54751098  0.18820951  0.39976070     0.00500
H175        H  0.61911308  0.19553914  0.30281919     0.15100
H176        H  0.62558326  0.07012013  0.36594158     0.14900
N177        N  0.60798689  0.91188739  0.52529241    -0.27100
N178        N  0.64128697  0.88897690  0.52726264    -0.35000
C179        C  0.63911703  0.85244081  0.55255370     0.01200
C180        C  0.60281848  0.85167829  0.56762910     0.07200
C181        C  0.58396415  0.89026324  0.54963282    -0.05900
H182        H  0.66373205  0.83279658  0.56309842     0.07900
H183        H  0.55663055  0.90572169  0.55719868     0.09100
Cu184      Cu  0.69191729  0.91755237  0.50540771     0.44200
Cu185      Cu  0.60038430  0.97902936  0.49591453     0.42000
Cu186      Cu  0.68936832  0.04853114  0.48444326     0.43900
N187        N  0.74084886  0.96021001  0.49496509    -0.34500
N188        N  0.74002959  0.00921805  0.48954929    -0.28800
C189        C  0.77610011  0.02684128  0.48673410    -0.04900
C190        C  0.80078946  0.98687875  0.49029676     0.07300
C191        C  0.77746902  0.94522544  0.49539825     0.01100
H192        H  0.78374012  0.06578289  0.48231768     0.08800
H193        H  0.78650814  0.90710062  0.50032496     0.07900
N194        N  0.63683611  0.07416849  0.46623202    -0.36000
N195        N  0.60466364  0.04792913  0.46794733    -0.28100
C196        C  0.57934337  0.06844719  0.44449581    -0.03400
C197        C  0.59613598  0.10985071  0.42749221     0.05200
C198        C  0.63256368  0.11191611  0.44226507     0.03300
H199        H  0.55273453  0.05054893  0.43656175     0.08400
H200        H  0.65618482  0.13400343  0.43172774     0.07300
C201        C  0.59582281  0.61532312  0.66768845     0.86600
C202        C  0.60702510  0.67098318  0.66652942    -0.53600
C203        C  0.58910925  0.69935245  0.64024804     0.09600
C204        C  0.56142304  0.66723599  0.61635038     0.20500
C205        C  0.55248239  0.61718590  0.67115429    -0.54300
C206        C  0.53349490  0.64279510  0.64432118     0.09700
C207        C  0.60350769  0.59625343  0.62941923    -0.53800
C208        C  0.58621522  0.62315218  0.60240008     0.10200
H209        H  0.62499595  0.68702157  0.68723031     0.14800
H210        H  0.54732778  0.68840712  0.59413396     0.00500
H211        H  0.53885078  0.59977001  0.69434864     0.15100
H212        H  0.62223216  0.56488574  0.62393754     0.14900
C213        C  0.60004070  0.34082141  0.32182920     0.86600
C214        C  0.60737617  0.36359013  0.35927526    -0.53600
C215        C  0.58789342  0.34032460  0.38702453     0.09600
C216        C  0.56149762  0.29609704  0.37442281     0.20500
C217        C  0.60993742  0.28567417  0.32772472    -0.54300
C218        C  0.58829602  0.26033037  0.35298284     0.09700
C219        C  0.55669336  0.34110368  0.31717506    -0.53800
C220        C  0.53571423  0.31970943  0.34473865     0.10200
H221        H  0.62742015  0.39426050  0.36385702     0.14800
H222        H  0.54579708  0.27767836  0.39706024     0.00500
H223        H  0.63404625  0.26857608  0.31469489     0.15100
H224        H  0.54459055  0.35795420  0.29299526     0.14900
N225        N  0.60307151  0.41698100  0.46583079    -0.27100
N226        N  0.63540289  0.39180755  0.46467049    -0.35000
C227        C  0.63165023  0.35434286  0.44040282     0.01200
C228        C  0.59539902  0.35566546  0.42508830     0.07200
C229        C  0.57818732  0.39617052  0.44196771    -0.05900
H230        H  0.65546795  0.33292502  0.43021156     0.07900
H231        H  0.55171317  0.41351406  0.43366097     0.09100
Cu232      Cu  0.68730712  0.41879075  0.48497293     0.44200
Cu233      Cu  0.59790538  0.48543234  0.49287623     0.42000
Cu234      Cu  0.68858971  0.54973272  0.50733373     0.43900
N235        N  0.73769125  0.45964157  0.49278796    -0.34500
N236        N  0.73818960  0.50853906  0.49877173    -0.28800
C237        C  0.77476470  0.52475818  0.49965608    -0.04900
C238        C  0.79841764  0.48406034  0.49419750     0.07300
C239        C  0.77391948  0.44336822  0.49011018     0.01100
H240        H  0.78351824  0.56320103  0.50447633     0.08800
H241        H  0.78181647  0.40494064  0.48477789     0.07900
N242        N  0.63621335  0.57697744  0.52535641    -0.36000
N243        N  0.60334402  0.55274684  0.52151579    -0.28100
C244        C  0.57769905  0.57262394  0.54464621    -0.03400
C245        C  0.59494211  0.61148722  0.56395132     0.05200
C246        C  0.63200910  0.61298834  0.55062101     0.03300
H247        H  0.55051517  0.55514413  0.55104910     0.08400
H248        H  0.65578504  0.63292415  0.56299377     0.07300
O249        O  0.16900197  0.44486708  0.49766745    -0.72800
O250        O  0.05333928  0.44470884  0.49939390    -0.73800
O251        O  0.11080295  0.43302662  0.44413282    -0.62400
O252        O  0.11265047  0.45711313  0.55333938    -0.70800
O253        O  0.11352658  0.53899608  0.54246690    -0.70400
O254        O  0.11157661  0.51483065  0.43393418    -0.61600
O255        O  0.05372005  0.52665014  0.48901721    -0.74100
O256        O  0.16946622  0.52704706  0.48799442    -0.72900
Cu257      Cu  0.11125340  0.44206993  0.49897465     1.04600
Cu258      Cu  0.11184887  0.52967343  0.48801442     1.04300
C259        C  0.18738457  0.48595946  0.49267356     0.93400
C260        C  0.03523770  0.48564748  0.49442795     0.92500
C261        C  0.11209788  0.46996011  0.42173256     0.84700
C262        C  0.11485009  0.50228257  0.56492403     0.91000
O263        O  0.97438259  0.44425249  0.49958161    -0.72800
O264        O  0.85859191  0.44307968  0.49855539    -0.73800
O265        O  0.91592933  0.43126673  0.44526332    -0.62400
O266        O  0.91517033  0.45579293  0.55332954    -0.70800
O267        O  0.91428879  0.53773575  0.54279463    -0.70400
O268        O  0.91757202  0.51324188  0.43440152    -0.61600
O269        O  0.85890859  0.52505325  0.48790938    -0.74100
O270        O  0.97461391  0.52635902  0.48986498    -0.72900
Cu271      Cu  0.91630097  0.44076796  0.49952158     1.04600
Cu272      Cu  0.91662304  0.52845481  0.48838126     1.04300
C273        C  0.99279037  0.48543673  0.49471675     0.93400
C274        C  0.84059564  0.48402857  0.49339848     0.92500
C275        C  0.91563399  0.46808049  0.42289618     0.84700
C276        C  0.91242706  0.50073164  0.56500481     0.91000
C277        C  0.92917956  0.61824397  0.82327980     0.86600
C278        C  0.92021460  0.67408081  0.82497853    -0.53600
C279        C  0.93877328  0.70123015  0.85167034     0.09600
C280        C  0.96387803  0.66750723  0.87633820     0.20500
C281        C  0.97248667  0.61500907  0.82331690    -0.54300
C282        C  0.99159287  0.64241262  0.84921735     0.09700
C283        C  0.91842052  0.59903942  0.86119839    -0.53800
C284        C  0.93646264  0.62422995  0.88910949     0.10200
H285        H  0.90168414  0.68978312  0.80440583     0.14800
H286        H  0.97834655  0.68772308  0.89895529     0.00500
H287        H  0.98597615  0.59126836  0.80336583     0.15100
H288        H  0.89861328  0.56866667  0.86664038     0.14900
C289        C  0.92947492  0.33512139  0.17170352     0.86600
C290        C  0.92020421  0.27992518  0.16654176    -0.53600
C291        C  0.93989922  0.25597674  0.13942124     0.09600
C292        C  0.96523890  0.29344230  0.11682062     0.20500
C293        C  0.97265396  0.33875671  0.17371532    -0.54300
C294        C  0.99233633  0.31872666  0.14514279     0.09700
C295        C  0.91913013  0.35793883  0.13463853    -0.53800
C296        C  0.93743899  0.33627119  0.10574354     0.10200
H297        H  0.89946988  0.26240550  0.18428127     0.14800
H298        H  0.98006822  0.27630631  0.09331292     0.00500
H299        H  0.98561823  0.35679499  0.19709088     0.15100
H300        H  0.89821811  0.38728131  0.13085953     0.14900
N301        N  0.92088548  0.54909152  0.96902268    -0.27100
N302        N  0.88810033  0.57306360  0.96636250    -0.35000
C303        C  0.89162843  0.60991966  0.94149072     0.01200
C304        C  0.92827442  0.60966279  0.92728454     0.07200
C305        C  0.94592073  0.57025833  0.94547470    -0.05900
H306        H  0.86759672  0.63003262  0.93020140     0.07900
H307        H  0.97301956  0.55378949  0.93829459     0.09100
Cu308      Cu  0.83634160  0.54497797  0.98547347     0.44200
Cu309      Cu  0.92650397  0.48134800  0.99788337     0.42000
Cu310      Cu  0.83638441  0.41426271  0.00849880     0.43900
N311        N  0.78659411  0.50303211  0.99231402    -0.34500
N312        N  0.78659783  0.45417108  0.99851804    -0.28800
C313        C  0.75022762  0.43729313  0.99925993    -0.04900
C314        C  0.72626028  0.47759116  0.99350654     0.07300
C315        C  0.75025979  0.51867105  0.98929784     0.01100
H316        H  0.74183790  0.39878351  0.00442715     0.08800
H317        H  0.74196854  0.55697280  0.98389719     0.07900
N318        N  0.88813953  0.38852127  0.02906210    -0.36000
N319        N  0.92084993  0.41351489  0.02675407    -0.28100
C320        C  0.94597820  0.39286941  0.05032622    -0.03400
C321        C  0.92848052  0.35273068  0.06811559     0.05200
C322        C  0.89180098  0.35155319  0.05380062     0.03300
H323        H  0.97316443  0.40980685  0.05754129     0.08400
H324        H  0.86794538  0.33012704  0.06456059     0.07300
C325        C  0.93155845  0.83783478  0.81865123     0.86600
C326        C  0.97491787  0.83991426  0.81785122    -0.53600
C327        C  0.99353491  0.81771303  0.84643216     0.09600
C328        C  0.96526511  0.79369781  0.87402499     0.20500
C329        C  0.92064153  0.78306014  0.82348716    -0.54300
C330        C  0.93945303  0.75790309  0.85069509     0.09700
C331        C  0.92135281  0.86085650  0.85551654    -0.53800
C332        C  0.93861178  0.83784822  0.88465028     0.10200
H333        H  0.98869120  0.85974648  0.79569719     0.14800
H334        H  0.97914121  0.77550978  0.89775457     0.00500
H335        H  0.89966962  0.76657951  0.80541944     0.15100
H336        H  0.90173730  0.89166735  0.85909228     0.14900
C337        C  0.92983630  0.11528071  0.16498351     0.86600
C338        C  0.97278542  0.11790257  0.17151870    -0.53600
C339        C  0.99394947  0.14360351  0.14611404     0.09600
C340        C  0.96860742  0.16688820  0.11588117     0.20500
C341        C  0.91873764  0.17071043  0.16176946    -0.54300
C342        C  0.93968715  0.19915575  0.13738736     0.09700
C343        C  0.92515216  0.09523721  0.12644633    -0.53800
C344        C  0.94465459  0.12205127  0.10052269     0.10200
H345        H  0.98440981  0.10057683  0.19566580     0.14800
H346        H  0.98456058  0.18800869  0.09468716     0.00500
H347        H  0.89745023  0.18652469  0.17913783     0.15100
H348        H  0.90649280  0.06375950  0.11982923     0.14900
N349        N  0.92866968  0.05273227  0.01853959    -0.27100
N350        N  0.89712132  0.07954541  0.02040558    -0.35000
C351        C  0.90189864  0.11523531  0.04592062     0.01200
C352        C  0.93782704  0.11080066  0.06157892     0.07200
C353        C  0.95388578  0.07055896  0.04334026    -0.05900
H354        H  0.87862368  0.13697697  0.05686822     0.07900
H355        H  0.97955366  0.05103882  0.05136445     0.09100
Cu356      Cu  0.84396343  0.05637984  0.00028298     0.44200
Cu357      Cu  0.93248871  0.98518936  0.98982573     0.42000
Cu358      Cu  0.84066414  0.92579079  0.97837975     0.43900
N359        N  0.79274516  0.01687388  0.99287506    -0.34500
N360        N  0.79193790  0.96798469  0.98694957    -0.28800
C361        C  0.75539965  0.95195223  0.98613584    -0.04900
C362        C  0.73190525  0.99267371  0.99158698     0.07300
C363        C  0.75652564  0.03335788  0.99564775     0.01100
H364        H  0.74656541  0.91350660  0.98144464     0.08800
H365        H  0.74873034  0.07179373  0.00107724     0.07900
N366        N  0.89116314  0.89477415  0.95971716    -0.36000
N367        N  0.92488380  0.91716054  0.96227503    -0.28100
C368        C  0.94936455  0.89399020  0.93958594    -0.03400
C369        C  0.93026278  0.85493565  0.92206433     0.05200
C370        C  0.89344382  0.85692782  0.93570482     0.03300
H371        H  0.97727051  0.90875192  0.93249139     0.08400
H372        H  0.86877597  0.83739039  0.92466322     0.07300
O373        O  0.11510692  0.04050998  0.45693939    -0.72800
O374        O  0.11310511  0.01172662  0.56425535    -0.73800
O375        O  0.17069414  0.02616639  0.51113178    -0.62400
O376        O  0.05539044  0.02684515  0.50905799    -0.70800
O377        O  0.05470297  0.94578234  0.49563180    -0.70400
O378        O  0.17043859  0.94407188  0.50125665    -0.61600
O379        O  0.11018144  0.93014649  0.55256637    -0.74100
O380        O  0.11600144  0.95929561  0.44421884    -0.72900
Cu381      Cu  0.11332303  0.02902050  0.51079634     1.04600
Cu382      Cu  0.11257843  0.94188412  0.49804870     1.04300
C383        C  0.11774348  0.00502040  0.43369329     0.93400
C384        C  0.11254702  0.96629378  0.57539906     0.92500
C385        C  0.18870375  0.98524298  0.50645723     0.84700
C386        C  0.03681268  0.98668582  0.50136446     0.91000
O387        O  0.86106754  0.94738959  0.48594597    -0.72800
O388        O  0.97602893  0.94704629  0.49201213    -0.73800
O389        O  0.91403110  0.93370176  0.54253725    -0.62400
O390        O  0.92089451  0.96194092  0.43465976    -0.70800
O391        O  0.92141539  0.04349164  0.44574839    -0.70400
O392        O  0.91482697  0.01544604  0.55386488    -0.61600
O393        O  0.97655821  0.02873292  0.50325361    -0.74100
O394        O  0.86086403  0.02933739  0.49647495    -0.72900
Cu395      Cu  0.91826589  0.94476843  0.48834920     1.04600
Cu396      Cu  0.91862625  0.03213835  0.50019423     1.04300
C397        C  0.84286407  0.98811311  0.49070354     0.93400
C398        C  0.99451513  0.98756204  0.49882600     0.92500
C399        C  0.91194039  0.97014596  0.56505681     0.84700
C400        C  0.92079774  0.00721477  0.42296491     0.91000
C401        C  0.09691924  0.63227611  0.81981033     0.86600
C402        C  0.05379422  0.62992195  0.81794095    -0.53600
C403        C  0.03440949  0.64849625  0.84721780     0.09600
C404        C  0.06179689  0.67185416  0.87607778     0.20500
C405        C  0.10682344  0.68682233  0.82651399    -0.54300
C406        C  0.08802596  0.70964799  0.85478497     0.09700
C407        C  0.10682064  0.60709603  0.85628484    -0.53800
C408        C  0.08877367  0.62790521  0.88576913     0.10200
H409        H  0.04056473  0.61397500  0.79390893     0.14800
H410        H  0.04714343  0.68814804  0.90003736     0.00500
H411        H  0.12720605  0.70512192  0.80846014     0.15100
H412        H  0.12700369  0.57678585  0.85938429     0.14900
C413        C  0.09864020  0.35280989  0.16488104     0.86600
C414        C  0.05504511  0.35312843  0.16791869    -0.53600
C415        C  0.03520273  0.32451943  0.14298509     0.09600
C416        C  0.06218168  0.29805474  0.11586048     0.20500
C417        C  0.10755801  0.29686618  0.16617779    -0.54300
C418        C  0.08881886  0.26715286  0.14104526     0.09700
C419        C  0.10669410  0.36876984  0.12586471    -0.53800
C420        C  0.08796645  0.34075874  0.10007557     0.10200
H421        H  0.04180399  0.37455908  0.18926145     0.14800
H422        H  0.04718088  0.27561385  0.09473341     0.00500
H423        H  0.12384211  0.28209346  0.18825879     0.15100
H424        H  0.12562205  0.39989801  0.11904724     0.14900
N425        N  0.10068268  0.41191533  0.01858069    -0.27100
N426        N  0.13282096  0.38628097  0.01969601    -0.35000
C427        C  0.12947102  0.34985687  0.04492707     0.01200
C428        C  0.09378357  0.35243938  0.06108406     0.07200
C429        C  0.07636677  0.39238610  0.04342966    -0.05900
H430        H  0.15351055  0.32892740  0.05536949     0.07900
H431        H  0.05049280  0.41075275  0.05210448     0.09100
Cu432      Cu  0.18471592  0.41209817  0.99887821     0.44200
Cu433      Cu  0.09547570  0.48040987  0.99120508     0.42000
Cu434      Cu  0.18688726  0.54365525  0.98153103     0.43900
N435        N  0.23536197  0.45233431  0.99121264    -0.34500
N436        N  0.23606307  0.50158048  0.98709077    -0.28800
C437        C  0.27260416  0.51751219  0.98528878    -0.04900
C438        C  0.29610025  0.47623536  0.98820324     0.07300
C439        C  0.27153687  0.43550267  0.99190220     0.01100
H440        H  0.28138309  0.55622043  0.98174752     0.08800
H441        H  0.27938651  0.39667998  0.99567959     0.07900
N442        N  0.13592882  0.57236640  0.96208392    -0.36000
N443        N  0.10261888  0.54874412  0.96391002    -0.28100
C444        C  0.07824692  0.57069624  0.94031714    -0.03400
C445        C  0.09707281  0.61005277  0.92298963     0.05200
C446        C  0.13351594  0.60970903  0.93759010     0.03300
H447        H  0.05076217  0.55500009  0.93267419     0.08400
H448        H  0.15800810  0.63010799  0.92708851     0.07300
C449        C  0.10082100  0.84885934  0.83105247     0.86600
C450        C  0.11259213  0.79415616  0.83609040    -0.53600
C451        C  0.09065634  0.76603099  0.85967017     0.09600
C452        C  0.06159297  0.79897412  0.88065504     0.20500
C453        C  0.05794292  0.84547762  0.82399710    -0.54300
C454        C  0.03644246  0.82110796  0.84983227     0.09700
C455        C  0.10492696  0.87061397  0.86903935    -0.53800
C456        C  0.08549910  0.84467157  0.89542374     0.10200
H457        H  0.13627011  0.77825207  0.82104673     0.14800
H458        H  0.04562176  0.77845236  0.90216242     0.00500
H459        H  0.04666374  0.86146430  0.79915353     0.15100
H460        H  0.12370749  0.90220023  0.87509873     0.14900
C461        C  0.09877004  0.13294745  0.17886495     0.86600
C462        C  0.10771937  0.18802534  0.17292610    -0.53600
C463        C  0.08875076  0.21071346  0.14466152     0.09600
C464        C  0.06456606  0.17247496  0.12195948     0.20500
C465        C  0.05549382  0.12819282  0.17905122    -0.54300
C466        C  0.03669066  0.14823399  0.14973451     0.09700
C467        C  0.11045155  0.10890494  0.14269427    -0.53800
C468        C  0.09279532  0.12951907  0.11278893     0.10200
H469        H  0.12780672  0.20618308  0.19096002     0.14800
H470        H  0.05053295  0.18869380  0.09757282     0.00500
H471        H  0.04196341  0.10882862  0.20151279     0.15100
H472        H  0.13101711  0.07898818  0.14014925     0.14900
N473        N  0.10752326  0.05142374  0.03403910    -0.27100
N474        N  0.14106661  0.07426517  0.03695355    -0.35000
C475        C  0.13870120  0.11077714  0.06202026     0.01200
C476        C  0.10196609  0.11159850  0.07577555     0.07200
C477        C  0.08299809  0.07314586  0.05747124    -0.05900
H478        H  0.16319903  0.13065649  0.07308218     0.07900
H479        H  0.05505873  0.05806260  0.06408768     0.09100
Cu480      Cu  0.19169465  0.04626603  0.01645270     0.44200
Cu481      Cu  0.10007014  0.98472854  0.00454740     0.42000
Cu482      Cu  0.18948421  0.91701405  0.99096189     0.43900
N483        N  0.24087031  0.00572826  0.00677881    -0.34500
N484        N  0.24048497  0.95718258  0.99950145    -0.28800
C485        C  0.27689446  0.94134936  0.99695440    -0.04900
C486        C  0.30117356  0.98208114  0.00259382     0.07300
C487        C  0.27728123  0.02220633  0.00866723     0.01100
H488        H  0.28509564  0.90328676  0.99075131     0.08800
H489        H  0.28572940  0.06045515  0.01464031     0.07900
N490        N  0.13591311  0.89149156  0.97272465    -0.36000
N491        N  0.10391358  0.91717386  0.97560999    -0.28100
C492        C  0.07781988  0.89750561  0.95235002    -0.03400
C493        C  0.09365938  0.85702287  0.93409948     0.05200
C494        C  0.13051116  0.85460126  0.94819918     0.03300
H495        H  0.05131694  0.91575735  0.94529057     0.08400
H496        H  0.15365019  0.83319771  0.93665115     0.07300
C497        C  0.12037378  0.00409716  0.32923173    -0.14200
C498        C  0.13686452  0.05139230  0.32219960     0.16200
C499        C  0.14945202  0.08083134  0.35194541     0.02500
C500        C  0.14317162  0.06434294  0.38763404    -0.12700
C501        C  0.12489412  0.01832490  0.39489122    -0.03800
C502        C  0.11458981  0.98717303  0.36520622     0.01700
C503        C  0.13305736  0.07391099  0.28518886     0.08600
N504        N  0.16762876  0.12847783  0.34637136     0.64900
H505        H  0.15256925  0.08817288  0.40992457     0.17800
N506        N  0.09575458  0.94008170  0.37091080     0.75400
H507        H  0.10961330  0.98156029  0.30681009     0.09300
C508        C  0.14598714  0.05044812  0.25305048     0.03000
C509        C  0.13666738  0.07060651  0.21862456    -0.05700
C510        C  0.11442894  0.11422278  0.21555242    -0.24100
C511        C  0.10306751  0.13861113  0.24833703     0.12300
C512        C  0.11203077  0.11800121  0.28216569    -0.13200
N513        N  0.16833139  0.00595959  0.25488669     0.64000
H514        H  0.14607274  0.05083915  0.19463201     0.11800
N515        N  0.08060560  0.18331390  0.24800657     0.60600
H516        H  0.10080180  0.13573741  0.30642496     0.08000
O517        O  0.11409231  0.90000744  0.36660543    -0.40900
O518        O  0.05975541  0.93838869  0.37243411    -0.40000
O519        O  0.15069676  0.16796237  0.35583286    -0.40000
O520        O  0.20300986  0.13025534  0.33996557    -0.37700
O521        O  0.04488907  0.17982957  0.25210309    -0.38700
O522        O  0.09684825  0.22496666  0.25395128    -0.34800
O523        O  0.15359216  0.96451284  0.24566156    -0.36200
O524        O  0.20414113  0.00965379  0.25811415    -0.40500
C525        C  0.10922053  0.94596682  0.75515665    -0.14200
C526        C  0.12852372  0.91849480  0.72864111     0.16200
C527        C  0.14842918  0.87528770  0.73908454     0.02500
C528        C  0.14432344  0.85641291  0.77449600    -0.12700
C529        C  0.11967850  0.87920606  0.79991283    -0.03800
C530        C  0.10554367  0.92757130  0.79087291     0.01700
C531        C  0.12382385  0.93178070  0.68970744     0.08600
N532        N  0.17106906  0.84857257  0.71330649     0.64900
H533        H  0.15920519  0.82165508  0.78049802     0.17800
N534        N  0.08410891  0.95618260  0.81655295     0.75400
H535        H  0.09500579  0.98048101  0.74755549     0.09300
C536        C  0.09527432  0.90815828  0.66845088     0.03000
C537        C  0.09202298  0.91941040  0.63114839    -0.05700
C538        C  0.11607718  0.95542057  0.61490963    -0.24100
C539        C  0.14407424  0.97985446  0.63656591     0.12300
C540        C  0.14785389  0.96767322  0.67366016    -0.13200
N541        N  0.06895942  0.87345451  0.68474947     0.64000
H542        H  0.07016931  0.90075678  0.61499254     0.11800
N543        N  0.17012951  0.01530025  0.62084839     0.60600
H544        H  0.16990196  0.98581010  0.68988624     0.08000
O545        O  0.04851984  0.96076001  0.81223961    -0.40900
O546        O  0.10160215  0.98620883  0.83743551    -0.40000
O547        O  0.20628671  0.85842809  0.71079986    -0.40000
O548        O  0.15788740  0.80920259  0.69873486    -0.37700
O549        O  0.16626976  0.06142076  0.62735755    -0.38700
O550        O  0.20048031  0.00007712  0.60620463    -0.34800
O551        O  0.04219728  0.88932015  0.70451810    -0.36200
O552        O  0.07444241  0.82691212  0.68214086    -0.40500
C553        C  0.91658925  0.07368410  0.33033109    -0.14200
C554        C  0.90464844  0.03463406  0.30714144     0.16200
C555        C  0.90034528  0.98604751  0.32199291     0.02500
C556        C  0.90702329  0.97780312  0.35935938    -0.12700
C557        C  0.91780490  0.01723192  0.38288096    -0.03800
C558        C  0.92284749  0.06570112  0.36771534     0.01700
C559        C  0.90019534  0.04546724  0.26730506     0.08600
N560        N  0.88793041  0.94492669  0.29986248     0.64900
H561        H  0.90260028  0.94034135  0.37014381     0.17800
N562        N  0.93491535  0.10728097  0.38957374     0.75400
H563        H  0.92176540  0.11079922  0.31921238     0.09300
C564        C  0.87860394  0.08657990  0.25492640     0.03000
C565        C  0.88356988  0.10490272  0.21935687    -0.05700
C566        C  0.91069848  0.08383316  0.19559209    -0.24100
C567        C  0.92598428  0.03655060  0.20572156     0.12300
C568        C  0.92188289  0.01898862  0.24171853    -0.13200
N569        N  0.85267884  0.11162155  0.27869964     0.64000
H570        H  0.86686608  0.13700678  0.21161355     0.11800
N571        N  0.94862666  0.00822565  0.18080470     0.60600
H572        H  0.93777339  0.98628920  0.25017158     0.08000
O573        O  0.91053388  0.13857026  0.40023460    -0.40900
O574        O  0.96997275  0.11849378  0.39127602    -0.40000
O575        O  0.91118826  0.91068900  0.29209746    -0.40000
O576        O  0.85262051  0.93718623  0.29536456    -0.37700
O577        O  0.93207365  0.98033274  0.15777730    -0.38700
O578        O  0.98369923  0.00192236  0.18726322    -0.34800
O579        O  0.86068064  0.15521515  0.28988427    -0.36200
O580        O  0.81883923  0.09540543  0.28147382    -0.40500
C581        C  0.87527312  0.91125954  0.65270290    -0.14200
C582        C  0.89984946  0.93274234  0.67871084     0.16200
C583        C  0.92634238  0.96991885  0.66754233     0.02500
C584        C  0.92868827  0.98356232  0.63055199    -0.12700
C585        C  0.90576044  0.95959960  0.60426505    -0.03800
C586        C  0.87804133  0.92425921  0.61575851     0.01700
C587        C  0.90276285  0.90836610  0.71497946     0.08600
N588        N  0.95339122  0.99069966  0.69272226     0.64900
H589        H  0.95009100  0.01076914  0.62206783     0.17800
N590        N  0.85244914  0.90126075  0.59020921     0.75400
H591        H  0.85498040  0.88247283  0.66094172     0.09300
C592        C  0.89210720  0.93168939  0.74783840     0.03000
C593        C  0.89934437  0.90785995  0.78144323    -0.05700
C594        C  0.91641146  0.86015478  0.78284122    -0.24100
C595        C  0.92433982  0.83568736  0.74911011     0.12300
C596        C  0.91764931  0.86005510  0.71607234    -0.13200
N597        N  0.87285144  0.97867990  0.74748076     0.64000
H598        H  0.89237308  0.92778179  0.80613158     0.11800
N599        N  0.93962571  0.78603695  0.74760394     0.60600
H600        H  0.92518483  0.84139162  0.69083485     0.08000
O601        O  0.82015683  0.92050059  0.58456080    -0.40900
O602        O  0.85877550  0.85728522  0.57925522    -0.40000
O603        O  0.98539076  0.96993775  0.69664234    -0.40000
O604        O  0.94907992  0.03496103  0.70398404    -0.37700
O605        O  0.91906767  0.75078416  0.73527120    -0.38700
O606        O  0.97510960  0.77947022  0.75104444    -0.34800
O607        O  0.83699203  0.97910935  0.74387317    -0.36200
O608        O  0.88985823  0.01744072  0.75903747    -0.40500
C609        C  0.90903843  0.35617039  0.27345336    -0.14200
C610        C  0.89863347  0.40654335  0.27402198     0.16200
C611        C  0.89431162  0.43251970  0.24083734     0.02500
C612        C  0.90084096  0.40782161  0.20760575    -0.12700
C613        C  0.91291260  0.35745846  0.20676402    -0.03800
C614        C  0.91743479  0.33197309  0.24079727     0.01700
C615        C  0.89797381  0.43160211  0.31002396     0.08600
N616        N  0.88525134  0.48462049  0.24052954     0.64900
H617        H  0.89906995  0.42968760  0.18280982     0.17800
N618        N  0.93414445  0.28321766  0.24332525     0.75400
H619        H  0.91381418  0.33646462  0.29898159     0.09300
C620        C  0.87203813  0.41551371  0.33702030     0.03000
C621        C  0.87835290  0.42832597  0.37353483    -0.05700
C622        C  0.90998379  0.45776137  0.38374893    -0.24100
C623        C  0.93492274  0.47619282  0.35662159     0.12300
C624        C  0.92878556  0.46289947  0.31996566    -0.13200
N625        N  0.83974004  0.38490945  0.32774818     0.64000
H626        H  0.85855441  0.41484266  0.39413666     0.11800
N627        N  0.96842316  0.50426485  0.36622185     0.60600
H628        H  0.94962858  0.47408748  0.29961345     0.08000
O629        O  0.97005055  0.27931346  0.24392395    -0.40900
O630        O  0.91388309  0.24660814  0.25388450    -0.40000
O631        O  0.91149266  0.51667296  0.23566033    -0.40000
O632        O  0.85081839  0.49784551  0.23815834    -0.37700
O633        O  0.99804173  0.48145024  0.37643689    -0.38700
O634        O  0.97066451  0.55019895  0.35811439    -0.34800
O635        O  0.83989383  0.33869967  0.33522214    -0.36200
O636        O  0.80889370  0.40543691  0.31833519    -0.40500
C637        C  0.87862305  0.55953661  0.65336521    -0.14200
C638        C  0.89857215  0.53146844  0.67948815     0.16200
C639        C  0.92008955  0.48997898  0.66804446     0.02500
C640        C  0.92379264  0.47966752  0.63063670    -0.12700
C641        C  0.90601411  0.51004224  0.60434871    -0.03800
C642        C  0.88192789  0.54900653  0.61610844     0.01700
C643        C  0.90335406  0.55280157  0.71659394     0.08600
N644        N  0.93993210  0.45971014  0.69398520     0.64900
H645        H  0.94161006  0.44882161  0.62209893     0.17800
N646        N  0.86016418  0.57772487  0.59058949     0.75400
H647        H  0.86171037  0.59126692  0.66191285     0.09300
C648        C  0.92410706  0.59766291  0.72066746     0.03000
C649        C  0.92891743  0.61853964  0.75513442    -0.05700
C650        C  0.91455849  0.59522807  0.78709833    -0.24100
C651        C  0.89212858  0.55097421  0.78267477     0.12300
C652        C  0.88696924  0.53013327  0.74753079    -0.13200
N653        N  0.94209855  0.62134015  0.68999863     0.64000
H654        H  0.94633739  0.65225392  0.75719935     0.11800
N655        N  0.87396465  0.52681030  0.81280267     0.60600
H656        H  0.87003457  0.49620321  0.74438028     0.08000
O657        O  0.87033513  0.62205900  0.58306675    -0.40900
O658        O  0.82747027  0.56230838  0.58097410    -0.40000
O659        O  0.92221646  0.42508855  0.71049040    -0.40000
O660        O  0.97591388  0.46151812  0.69550474    -0.37700
O661        O  0.84063291  0.53965597  0.82163968    -0.38700
O662        O  0.88722732  0.48616837  0.82490248    -0.34800
O663        O  0.92957200  0.66237631  0.67788433    -0.36200
O664        O  0.97030195  0.60100758  0.67476626    -0.40500
C665        C  0.14806671  0.38680225  0.25482704    -0.14200
C666        C  0.12393531  0.42541228  0.26620077     0.16200
C667        C  0.10228567  0.45071369  0.23944622     0.02500
C668        C  0.09997265  0.43138053  0.20388589    -0.12700
C669        C  0.11758599  0.38572533  0.19480512    -0.03800
C670        C  0.14630718  0.36812251  0.21904240     0.01700
C671        C  0.12094779  0.43726604  0.30593047     0.08600
N672        N  0.07972998  0.49322175  0.24861317     0.64900
H673        H  0.08045934  0.44871439  0.18471746     0.17800
N674        N  0.17547437  0.33449554  0.20722951     0.75400
H675        H  0.16834083  0.37102149  0.27397488     0.09300
C676        C  0.11211831  0.39931839  0.33161652     0.03000
C677        C  0.10923112  0.41092699  0.36880638    -0.05700
C678        C  0.11486589  0.46012768  0.38160606    -0.24100
C679        C  0.12413547  0.49808008  0.35582185     0.12300
C680        C  0.12707715  0.48634097  0.31853183    -0.13200
N681        N  0.10501405  0.34880752  0.32024845     0.64000
H682        H  0.10215790  0.38099890  0.38773769     0.11800
N683        N  0.13192387  0.54845545  0.36696397     0.60600
H684        H  0.13490049  0.51569158  0.29940562     0.08000
O685        O  0.18537416  0.29832657  0.22735427    -0.40900
O686        O  0.19526116  0.34539247  0.17951810    -0.40000
O687        O  0.09040057  0.53634488  0.23842049    -0.40000
O688        O  0.04620606  0.48680342  0.26041382    -0.37700
O689        O  0.16575625  0.56141960  0.37465178    -0.38700
O690        O  0.10698977  0.58168786  0.36201908    -0.34800
O691        O  0.12976041  0.31562950  0.32623021    -0.36200
O692        O  0.07189907  0.33587633  0.31009261    -0.40500
C693        C  0.15214336  0.56095618  0.65240881    -0.14200
C694        C  0.12654872  0.54207505  0.67838622     0.16200
C695        C  0.09833037  0.50695582  0.66746932     0.02500
C696        C  0.09604007  0.49169747  0.63070550    -0.12700
C697        C  0.12046415  0.51292160  0.60433572    -0.03800
C698        C  0.14917852  0.54703086  0.61569692     0.01700
C699        C  0.12542728  0.56611028  0.71484712     0.08600
N700        N  0.06964767  0.49048980  0.69263262     0.64900
H701        H  0.07354056  0.46598325  0.62234160     0.17800
N702        N  0.17535731  0.56843355  0.59005244     0.75400
H703        H  0.17355832  0.58843384  0.66044765     0.09300
C704        C  0.13590760  0.54127373  0.74728479     0.03000
C705        C  0.12900414  0.56388565  0.78131673    -0.05700
C706        C  0.11267872  0.61198592  0.78361994    -0.24100
C707        C  0.10516931  0.63804654  0.75027387     0.12300
C708        C  0.11140418  0.61478912  0.71677182    -0.13200
N709        N  0.15450647  0.49381602  0.74600437     0.64000
H710        H  0.13558196  0.54270534  0.80564354     0.11800
N711        N  0.09031241  0.68796341  0.74959635     0.60600
H712        H  0.10387921  0.63446120  0.69185047     0.08000
O713        O  0.20730837  0.54803939  0.58509239    -0.40900
O714        O  0.16973150  0.61210404  0.57797562    -0.40000
O715        O  0.04499955  0.52094782  0.70401826    -0.40000
O716        O  0.07027594  0.44641040  0.70518056    -0.37700
O717        O  0.11114743  0.72335423  0.73791706    -0.38700
O718        O  0.05488678  0.69492744  0.75296433    -0.34800
O719        O  0.18890601  0.49190340  0.73589790    -0.36200
O720        O  0.13948312  0.45617229  0.76140125    -0.40500
C721        C  0.64429944  0.09197247  0.23192153    -0.14200
C722        C  0.62034124  0.05264241  0.22039019     0.16200
C723        C  0.59809008  0.02720014  0.24667148     0.02500
C724        C  0.59658873  0.04546637  0.28246738    -0.12700
C725        C  0.61439098  0.09131923  0.29200650    -0.03800
C726        C  0.64226712  0.11089003  0.26757385     0.01700
C727        C  0.61846553  0.03983395  0.18087395     0.08600
N728        N  0.57348698  0.98644204  0.23661159     0.64900
H729        H  0.57721499  0.02733132  0.30151383     0.17800
N730        N  0.67028520  0.14715562  0.27885649     0.75400
H731        H  0.66449210  0.10844780  0.21288493     0.09300
C732        C  0.61049362  0.07702913  0.15455406     0.03000
C733        C  0.60976162  0.06483787  0.11743972    -0.05700
C734        C  0.61654856  0.01569961  0.10539480    -0.24100
C735        C  0.62448331  0.97831164  0.13186815     0.12300
C736        C  0.62540452  0.99070480  0.16913105    -0.13200
N737        N  0.60198343  0.12726810  0.16517593     0.64000
H738        H  0.60328953  0.09423086  0.09796936     0.11800
N739        N  0.63275840  0.92793661  0.12153294     0.60600
H740        H  0.63230091  0.96192518  0.18894374     0.08000
O741        O  0.67745442  0.18476867  0.25892528    -0.40900
O742        O  0.69218235  0.13729576  0.30529559    -0.40000
O743        O  0.58090578  0.94272039  0.24761574    -0.40000
O744        O  0.54095856  0.99550570  0.22333369    -0.37700
O745        O  0.66685876  0.91573398  0.11523806    -0.38700
O746        O  0.60769301  0.89413392  0.12575519    -0.34800
O747        O  0.56839435  0.13824848  0.17444640    -0.36200
O748        O  0.62604739  0.16188701  0.15940805    -0.40500
C749        C  0.61931001  0.86149337  0.77324742    -0.14200
C750        C  0.63257623  0.91088563  0.77337777     0.16200
C751        C  0.64366076  0.93345230  0.74020159     0.02500
C752        C  0.63837394  0.90745593  0.70706043    -0.12700
C753        C  0.62236359  0.85867370  0.70648717    -0.03800
C754        C  0.61402844  0.83532982  0.74071858     0.01700
C755        C  0.63206894  0.93754315  0.80884616     0.08600
N756        N  0.65967787  0.98289521  0.73968555     0.64900
H757        H  0.64494325  0.92693190  0.68193587     0.17800
N758        N  0.59693398  0.78645002  0.74310143     0.75400
H759        H  0.61100806  0.84376336  0.79874496     0.09300
C760        C  0.59925140  0.96378206  0.82013388     0.03000
C761        C  0.59490369  0.97725719  0.85702717    -0.05700
C762        C  0.62220070  0.96313380  0.88315685    -0.24100
C763        C  0.65519357  0.93763879  0.87163342     0.12300
C764        C  0.66007192  0.92566318  0.83473280    -0.13200
N765        N  0.56850546  0.97236563  0.79516800     0.64000
H766        H  0.56922405  0.99628951  0.86558633     0.11800
N767        N  0.68342675  0.92202930  0.89740234     0.60600
H768        H  0.68470335  0.90403450  0.82661319     0.08000
O769        O  0.56101944  0.78216218  0.74313204    -0.40900
O770        O  0.61677792  0.75023543  0.75431802    -0.40000
O771        O  0.69501257  0.98881702  0.74529210    -0.40000
O772        O  0.64058488  0.01862678  0.72660508    -0.37700
O773        O  0.68157947  0.87841433  0.91075002    -0.38700
O774        O  0.71363229  0.94765587  0.90124986    -0.34800
O775        O  0.54018891  0.94274642  0.79451926    -0.36200
O776        O  0.57052151  0.00787332  0.77242410    -0.40500
C777        C  0.42010808  0.02398455  0.25159497    -0.14200
C778        C  0.40138407  0.05203093  0.22474507     0.16200
C779        C  0.38032118  0.09421131  0.23536140     0.02500
C780        C  0.38314276  0.11196701  0.27121251    -0.12700
C781        C  0.40797289  0.08937709  0.29673658    -0.03800
C782        C  0.42237744  0.04125534  0.28772682     0.01700
C783        C  0.40619411  0.03864620  0.18576127     0.08600
N784        N  0.35645057  0.12000251  0.20990245     0.64900
H785        H  0.36665395  0.14458764  0.27785912     0.17800
N786        N  0.44234878  0.01165266  0.31409878     0.75400
H787        H  0.43456689  0.98974101  0.24412867     0.09300
C788        C  0.42797358  0.06939425  0.16214042     0.03000
C789        C  0.43186679  0.05629393  0.12533746    -0.05700
C790        C  0.41543884  0.01198711  0.11153918    -0.24100
C791        C  0.39442486  0.98056152  0.13550844     0.12300
C792        C  0.38993943  0.99418909  0.17225750    -0.13200
N793        N  0.44792755  0.11267718  0.17552589     0.64000
H794        H  0.44857837  0.08048764  0.10757844     0.11800
N795        N  0.37592583  0.93597889  0.12267958     0.60600
H796        H  0.37332863  0.97023084  0.19026358     0.08000
O797        O  0.47728043  0.00224237  0.30944837    -0.40900
O798        O  0.42337114  0.98564888  0.33657266    -0.40000
O799        O  0.32247427  0.10503776  0.20536752    -0.40000
O800        O  0.36581228  0.16346780  0.19935023    -0.37700
O801        O  0.39126223  0.89401699  0.12831138    -0.38700
O802        O  0.34139420  0.93762306  0.11279653    -0.34800
O803        O  0.47847253  0.10700965  0.19339221    -0.36200
O804        O  0.44003836  0.15541690  0.16287875    -0.40500
C805        C  0.41859119  0.85867290  0.77820877    -0.14200
C806        C  0.40356815  0.90694547  0.77985937     0.16200
C807        C  0.39641913  0.93289781  0.74701766     0.02500
C808        C  0.40475530  0.91033310  0.71328332    -0.12700
C809        C  0.42085073  0.86201969  0.71149400    -0.03800
C810        C  0.42729103  0.83615282  0.74501584     0.01700
C811        C  0.39974865  0.93001318  0.81656130     0.08600
N812        N  0.38141554  0.98253523  0.74744321     0.64900
H813        H  0.40009605  0.93221957  0.68890118     0.17800
N814        N  0.44508835  0.78804698  0.74632225     0.75400
H815        H  0.42555628  0.83890106  0.80321671     0.09300
C816        C  0.38006868  0.90434014  0.84462084     0.03000
C817        C  0.38555850  0.91832004  0.88098128    -0.05700
C818        C  0.40956503  0.95867383  0.89026914    -0.24100
C819        C  0.42691409  0.98702419  0.86215891     0.12300
C820        C  0.42235808  0.97204046  0.82563220    -0.13200
N821        N  0.35515613  0.86299774  0.83663674     0.64000
H822        H  0.37096452  0.89723333  0.90219365     0.11800
N823        N  0.45151917  0.02855406  0.87035057     0.60600
H824        H  0.43847494  0.99141056  0.80461438     0.08000
O825        O  0.48035764  0.78576715  0.75319449    -0.40900
O826        O  0.42457026  0.74963012  0.75177914    -0.40000
O827        O  0.40357800  0.01945605  0.74234250    -0.40000
O828        O  0.34579948  0.98864849  0.74502943    -0.37700
O829        O  0.48698508  0.02167040  0.87360688    -0.38700
O830        O  0.43905474  0.07262185  0.86728536    -0.34800
O831        O  0.36449466  0.81931703  0.84628261    -0.36200
O832        O  0.32099695  0.87141046  0.82760326    -0.40500
C833        C  0.38536093  0.46329124  0.16284078    -0.14200
C834        C  0.40097493  0.41826024  0.17558344     0.16200
C835        C  0.41855847  0.38570533  0.15063001     0.02500
C836        C  0.42101801  0.39887308  0.11372965    -0.12700
C837        C  0.40604376  0.44427692  0.10079281    -0.03800
C838        C  0.38744495  0.47635299  0.12572180     0.01700
C839        C  0.40022575  0.40585654  0.21506075     0.08600
N840        N  0.43511833  0.33971748  0.16264282     0.64900
H841        H  0.43529918  0.37361243  0.09517813     0.17800
N842        N  0.36883671  0.52088902  0.11359507     0.75400
H843        H  0.37117563  0.48813522  0.18175185     0.09300
C844        C  0.42096318  0.43448600  0.24068981     0.03000
C845        C  0.42558485  0.41638457  0.27639181    -0.05700
C846        C  0.41036563  0.36933585  0.28687671    -0.24100
C847        C  0.38269423  0.34702926  0.26332075     0.12300
C848        C  0.37949407  0.36393376  0.22714149    -0.13200
N849        N  0.43962831  0.48015474  0.23017907     0.64000
H850        H  0.44439770  0.43668327  0.29481929     0.11800
N851        N  0.35529683  0.31105129  0.27634882     0.60600
H852        H  0.36034859  0.34472486  0.20841286     0.08000
O853        O  0.38351637  0.56316105  0.12066750    -0.40900
O854        O  0.33461963  0.51833364  0.10275237    -0.40000
O855        O  0.41696194  0.29903530  0.15847955    -0.40000
O856        O  0.46986009  0.33879277  0.17184030    -0.37700
O857        O  0.33464283  0.32172912  0.30339554    -0.38700
O858        O  0.34743043  0.27258865  0.25762163    -0.34800
O859        O  0.46578852  0.47965450  0.20656992    -0.36200
O860        O  0.42705400  0.52153047  0.24141361    -0.40500
C861        C  0.42936160  0.55952221  0.82809579    -0.14200
C862        C  0.40332344  0.53335054  0.80577353     0.16200
C863        C  0.38422081  0.49095890  0.82012667     0.02500
C864        C  0.38997662  0.47717172  0.85680773    -0.12700
C865        C  0.41429860  0.50540429  0.87967135    -0.03800
C866        C  0.43474368  0.54626657  0.86470038     0.01700
C867        C  0.39730402  0.55171873  0.76778787     0.08600
N868        N  0.35753455  0.46313542  0.79843505     0.64900
H869        H  0.37398221  0.44568718  0.86788917     0.17800
N870        N  0.46192498  0.57381210  0.88604925     0.75400
H871        H  0.44565592  0.59072532  0.81697953     0.09300
C872        C  0.38694920  0.60181166  0.76162738     0.03000
C873        C  0.39170901  0.62328729  0.72712905    -0.05700
C874        C  0.40615853  0.59567943  0.69731283    -0.24100
C875        C  0.41146381  0.54334967  0.70272990     0.12300
C876        C  0.40755829  0.52214650  0.73780380    -0.13200
N877        N  0.37376953  0.63251596  0.79092567     0.64000
H878        H  0.38667670  0.66295639  0.72563021     0.11800
N879        N  0.42348608  0.51179096  0.67352158     0.60600
H880        H  0.41504134  0.48321293  0.74199062     0.08000
O881        O  0.45503943  0.61847865  0.89503599    -0.40900
O882        O  0.49511123  0.55669053  0.89041025    -0.40000
O883        O  0.36592744  0.41965017  0.78776281    -0.40000
O884        O  0.32349235  0.47791873  0.79581369    -0.37700
O885        O  0.39878818  0.48675712  0.65601424    -0.38700
O886        O  0.45828844  0.50070476  0.67054466    -0.34800
O887        O  0.39572985  0.66533300  0.80453766    -0.36200
O888        O  0.33852920  0.63368660  0.79797164    -0.40500
C889        C  0.65475268  0.41853731  0.15381888    -0.14200
C890        C  0.62337572  0.42243974  0.17749626     0.16200
C891        C  0.58839568  0.44047582  0.16323782     0.02500
C892        C  0.58509350  0.45234911  0.12606652    -0.12700
C893        C  0.61594529  0.44604008  0.10244986    -0.03800
C894        C  0.65116356  0.42960844  0.11653418     0.01700
C895        C  0.62682651  0.40571646  0.21637178     0.08600
N896        N  0.55560268  0.44594503  0.18591210     0.64900
H897        H  0.55800777  0.46544142  0.11544314     0.17800
N898        N  0.68375336  0.42507566  0.09338471     0.75400
H899        H  0.68222870  0.40678826  0.16424951     0.09300
C900        C  0.64073314  0.35780932  0.22545648     0.03000
C901        C  0.63672472  0.33942187  0.26102924    -0.05700
C902        C  0.61842337  0.36733219  0.28861338    -0.24100
C903        C  0.60942067  0.41796432  0.28041085     0.12300
C904        C  0.61376817  0.43645830  0.24471460    -0.13200
N905        N  0.65605490  0.32524941  0.19829562     0.64000
H906        H  0.64538337  0.30111764  0.26503353     0.11800
N907        N  0.59260083  0.44986910  0.30715274     0.60600
H908        H  0.60516876  0.47455277  0.23881309     0.08000
O909        O  0.69266763  0.38265929  0.08098452    -0.40900
O910        O  0.70711561  0.46120262  0.09075461    -0.40000
O911        O  0.54542201  0.48928210  0.19536746    -0.40000
O912        O  0.53297652  0.40934428  0.19022405    -0.37700
O913        O  0.55715500  0.45803605  0.30600928    -0.38700
O914        O  0.61387992  0.47852948  0.32575103    -0.34800
O915        O  0.69166939  0.31841891  0.19720612    -0.36200
O916        O  0.63408165  0.29503899  0.18184030    -0.40500
C917        C  0.64512593  0.49421639  0.82348056    -0.14200
C918        C  0.62238163  0.53145128  0.80787622     0.16200
C919        C  0.59550075  0.55662416  0.82958082     0.02500
C920        C  0.59208774  0.54479279  0.86669458    -0.12700
C921        C  0.61445281  0.50703166  0.88243448    -0.03800
C922        C  0.64135173  0.48180605  0.86053905     0.01700
C923        C  0.62553653  0.54327413  0.76864192     0.08600
N924        N  0.57085279  0.59339750  0.81390785     0.64900
H925        H  0.57157134  0.56471861  0.88318095     0.17800
N926        N  0.66646061  0.44550526  0.87600507     0.75400
H927        H  0.66596268  0.47496697  0.80689430     0.09300
C928        C  0.64833058  0.58341270  0.75633354     0.03000
C929        C  0.64255825  0.60289400  0.72127715    -0.05700
C930        C  0.61352798  0.58344984  0.69837906    -0.24100
C931        C  0.59675310  0.53668589  0.70839285     0.12300
C932        C  0.60168648  0.51823287  0.74391144    -0.13200
N933        N  0.67602198  0.60638015  0.77981123     0.64000
H934        H  0.66019452  0.63428806  0.71303616     0.11800
N935        N  0.57254296  0.50940897  0.68377896     0.60600
H936        H  0.58552366  0.48555427  0.75273559     0.08000
O937        O  0.69828921  0.45950249  0.88885893    -0.40900
O938        O  0.66011921  0.39944335  0.87069737    -0.40000
O939        O  0.53900649  0.58021704  0.80065291    -0.40000
O940        O  0.58221561  0.63818609  0.81046023    -0.37700
O941        O  0.58757471  0.48317303  0.65913908    -0.38700
O942        O  0.53801682  0.50164046  0.69203978    -0.34800
O943        O  0.70997168  0.59087431  0.77954337    -0.36200
O944        O  0.66860604  0.64758500  0.79498868    -0.40500
loop_ 
_geom_bond_atom_site_label_1 
_geom_bond_atom_site_label_2 
_geom_bond_distance 
_geom_bond_site_symmetry_2 
_ccdc_geom_bond_type 
O1           Cu9   2.016       .  S
O1           C11   1.279       .  A
O2           Cu9   2.010   1_554  S
O2           C12   1.277       .  A
O3           Cu9   2.036       .  S
O3           C13   1.281       .  A
O4           Cu9   2.011       .  S
O4           C14   1.277       .  A
O5          Cu10   2.018       .  S
O5           C14   1.279       .  A
O6          Cu10   2.024       .  S
O6           C13   1.279       .  A
O7          Cu10   2.014   1_554  S
O7           C12   1.277       .  A
O8          Cu10   2.011       .  S
O8           C11   1.278       .  A
Cu9         Cu10   2.374       .  S
C11         C921   1.479       .  S
C12         C893   1.471       .  S
C13          C28   1.483       .  S
C14         C314   1.471       .  S
O15         Cu23   2.016       .  S
O15          C25   1.278       .  A
O16         Cu23   2.008   1_554  S
O16          C26   1.279       .  A
O17         Cu23   2.018       .  S
O17          C27   1.278       .  A
O18         Cu23   2.031       .  S
O18          C28   1.280       .  A
O19         Cu24   2.027       .  S
O19          C28   1.280       .  A
O20         Cu24   2.018       .  S
O20          C27   1.278       .  A
O21         Cu24   2.021   1_554  S
O21          C26   1.279       .  A
O22         Cu24   2.015       .  S
O22          C25   1.279       .  A
Cu23        Cu24   2.370       .  S
C25         C865   1.482       .  S
C26         C837   1.485       .  S
C27         C438   1.474       .  S
C29          C30   1.527       .  S
C29          C35   1.520       .  S
C29          C33   1.529       .  S
C29         C874   1.547       .  S
C30          H37   1.080       .  S
C30          C31   1.373       .  D
C31          C32   1.545       .  S
C31         C206   1.509       .  S
C32          C36   1.564       .  S
C32          C34   1.557       .  S
C32          H38   1.107       .  S
C33          H39   1.074       .  S
C33          C34   1.371       .  D
C34          C79   1.515       .  S
C35          H40   1.085       .  S
C35          C36   1.370       .  D
C36          C56   1.478       .  S
C41          C42   1.528       .  S
C41          C47   1.519       .  S
C41          C45   1.527       .  S
C41         C846   1.546       .  S
C42          H49   1.078       .  S
C42          C43   1.373       .  D
C43          C44   1.555       .  S
C43         C220   1.509       .  S
C44          C48   1.556       .  S
C44          C46   1.553       .  S
C44          H50   1.107       .  S
C45          H51   1.070       .  S
C45          C46   1.377       .  D
C46          C91   1.515       .  S
C47          H52   1.087       .  S
C47          C48   1.366       .  D
C48          C73   1.478       .  S
N53          N54   1.322       .  A
N53          C57   1.350       .  A
N53         Cu61   2.099       .  S
N54          C55   1.343       .  A
N54         Cu60   2.082       .  S
C55          C56   1.386       .  A
C55          H58   1.082       .  S
C56          C57   1.391       .  A
C57          H59   1.082       .  S
Cu60         N63   2.083       .  S
Cu61         N71   2.099       .  S
Cu62         N64   2.082       .  S
Cu62         N70   2.081       .  S
N63          N64   1.322       .  A
N63          C67   1.347       .  A
N64          C65   1.348       .  A
C65          C66   1.385       .  A
C65          H68   1.082       .  S
C66         C259   1.476       .  S
C66          C67   1.385       .  A
C67          H69   1.082       .  S
N70          N71   1.322       .  A
N70          C74   1.344       .  A
N71          C72   1.351       .  A
C72          C73   1.391       .  A
C72          H75   1.082       .  S
C73          C74   1.385       .  A
C74          H76   1.082       .  S
C77          C78   1.517       .  S
C77          C83   1.530       .  S
C77          C81   1.514       .  S
C77         C809   1.539       .  S
C78          H85   1.077       .  S
C78          C79   1.376       .  D
C79          C80   1.560       .  S
C80          C84   1.556       .  S
C80          C82   1.552       .  S
C80          H86   1.108       .  S
C81          H87   1.078       .  S
C81          C82   1.370       .  D
C82         C155   1.508       .  S
C83          H88   1.083       .  S
C83          C84   1.369       .  D
C84         C104   1.474       .  S
C89          C90   1.531       .  S
C89          C95   1.518       .  S
C89          C93   1.526       .  S
C89         C781   1.546       .  S
C90          H97   1.070       .  S
C90          C91   1.373       .  D
C91          C92   1.558       .  S
C92          C96   1.562       .  S
C92          C94   1.547       .  S
C92          H98   1.107       .  S
C93          H99   1.066       .  S
C93          C94   1.371       .  D
C94         C167   1.509       .  S
C95         H100   1.086       .  S
C95          C96   1.369       .  D
C96         C121   1.478       .  S
N101        N102   1.322       .  A
N101        C105   1.349       .  A
N101       Cu109   2.094       .  S
N102        C103   1.343       .  A
N102       Cu108   2.080       .  S
C103        C104   1.384       .  A
C103        H106   1.082       .  S
C104        C105   1.390       .  A
C105        H107   1.082       .  S
Cu108       N111   2.080       .  S
Cu109       N119   2.094   1_565  S
Cu110       N112   2.085       .  S
Cu110       N118   2.085       .  S
N111        N112   1.322   1_565  A
N111        C115   1.348       .  A
N112        C113   1.346       .  A
C113        C114   1.385   1_545  A
C113        H116   1.082       .  S
C114        C385   1.475       .  S
C114        C115   1.385       .  A
C115        H117   1.082       .  S
N118        N119   1.322       .  A
N118        C122   1.344       .  A
N119        C120   1.350       .  A
C120        C121   1.389       .  A
C120        H123   1.082       .  S
C121        C122   1.387       .  A
C122        H124   1.082       .  S
O125       Cu133   2.034   1_554  S
O125        C135   1.281   1_554  A
O126       Cu133   2.016       .  S
O126        C136   1.279       .  A
O127       Cu133   2.017   1_554  S
O127        C137   1.278   1_565  A
O128       Cu133   2.015       .  S
O128        C138   1.278       .  A
O129       Cu134   2.027       .  S
O129        C138   1.279   1_545  A
O130       Cu134   2.012   1_554  S
O130        C137   1.280       .  A
O131       Cu134   2.024       .  S
O131        C136   1.279   1_545  A
O132       Cu134   2.027       .  S
O132        C135   1.280   1_545  A
Cu133      Cu134   2.370   1_565  S
C135        C151   1.485       .  S
C136        C362   1.476       .  S
C137        C734   1.492       .  S
C138        C762   1.481       .  S
O139       Cu147   2.021       .  S
O139        C149   1.279   1_565  A
O140       Cu147   2.003   1_556  S
O140        C150   1.279       .  A
O141       Cu147   2.035       .  S
O141        C151   1.280   1_554  A
O142       Cu147   2.017       .  S
O142        C152   1.277       .  A
O143       Cu148   2.026       .  S
O143        C152   1.280   1_546  A
O144       Cu148   2.028       .  S
O144        C151   1.280   1_545  A
O145       Cu148   2.014       .  S
O145        C150   1.277   1_545  A
O146       Cu148   2.009   1_554  S
O146        C149   1.278       .  A
Cu147      Cu148   2.371   1_564  S
C149        C790   1.485       .  S
C150        C818   1.477       .  S
C152        C486   1.477       .  S
C153        C154   1.515       .  S
C153        C159   1.527       .  S
C153        C157   1.522       .  S
C153        C753   1.537       .  S
C154        H161   1.079       .  S
C154        C155   1.365       .  D
C155        C156   1.549       .  S
C156        C160   1.567       .  S
C156        C158   1.558       .  S
C156        H162   1.107       .  S
C157        H163   1.079       .  S
C157        C158   1.374       .  D
C158        C203   1.514       .  S
C159        H164   1.084       .  S
C159        C160   1.373       .  D
C160        C180   1.482       .  S
C165        C166   1.526       .  S
C165        C171   1.518       .  S
C165        C169   1.524       .  S
C165        C725   1.545       .  S
C166        H173   1.067       .  S
C166        C167   1.372       .  D
C167        C168   1.554       .  S
C168        C172   1.557       .  S
C168        C170   1.558       .  S
C168        H174   1.108       .  S
C169        H175   1.073       .  S
C169        C170   1.379       .  D
C170        C218   1.515       .  S
C171        H176   1.087       .  S
C171        C172   1.366       .  D
C172        C197   1.478       .  S
N177        N178   1.323       .  A
N177        C181   1.352       .  A
N177       Cu185   2.105       .  S
N178        C179   1.345       .  A
N178       Cu184   2.084       .  S
C179        C180   1.387       .  A
C179        H182   1.082       .  S
C180        C181   1.391       .  A
C181        H183   1.082       .  S
Cu184       N187   2.083       .  S
Cu185       N195   2.106   1_565  S
Cu186       N188   2.076       .  S
Cu186       N194   2.075       .  S
N187        N188   1.322   1_565  A
N187        C191   1.346       .  A
N188        C189   1.347       .  A
C189        C190   1.384   1_545  A
C189        H192   1.082       .  S
C190        C397   1.473       .  S
C190        C191   1.385       .  A
C191        H193   1.082       .  S
N194        N195   1.322       .  A
N194        C198   1.343       .  A
N195        C196   1.351       .  A
C196        C197   1.393       .  A
C196        H199   1.082       .  S
C197        C198   1.384       .  A
C198        H200   1.082       .  S
C201        C202   1.532       .  S
C201        C207   1.517       .  S
C201        C205   1.524       .  S
C201        C930   1.540       .  S
C202        H209   1.071       .  S
C202        C203   1.376       .  D
C203        C204   1.556       .  S
C204        C208   1.555       .  S
C204        C206   1.556       .  S
C204        H210   1.107       .  S
C205        H211   1.078       .  S
C205        C206   1.369       .  D
C207        H212   1.087       .  S
C207        C208   1.364       .  D
C208        C245   1.476       .  S
C213        C214   1.521       .  S
C213        C219   1.526       .  S
C213        C217   1.529       .  S
C213        C902   1.545       .  S
C214        H221   1.086       .  S
C214        C215   1.370       .  D
C215        C216   1.561       .  S
C215        C228   1.476       .  S
C216        C220   1.547       .  S
C216        C218   1.558       .  S
C216        H222   1.107       .  S
C217        H223   1.076       .  S
C217        C218   1.370       .  D
C219        H224   1.079       .  S
C219        C220   1.370       .  D
N225        N226   1.322       .  A
N225        C229   1.349       .  A
N225       Cu233   2.088       .  S
N226        C227   1.344       .  A
N226       Cu232   2.084       .  S
C227        C228   1.387       .  A
C227        H230   1.082       .  S
C228        C229   1.388       .  A
C229        H231   1.082       .  S
Cu232       N235   2.084       .  S
Cu233       N243   2.088       .  S
Cu234       N236   2.087       .  S
Cu234       N242   2.087       .  S
N235        N236   1.323       .  A
N235        C239   1.348       .  A
N236        C237   1.348       .  A
C237        C238   1.386       .  A
C237        H240   1.082       .  S
C238        C274   1.477       .  S
C238        C239   1.385       .  A
C239        H241   1.082       .  S
N242        N243   1.322       .  A
N242        C246   1.344       .  A
N243        C244   1.348       .  A
C244        C245   1.388       .  A
C244        H247   1.082       .  S
C245        C246   1.388       .  A
C246        H248   1.082       .  S
O249       Cu257   2.023       .  S
O249        C259   1.279       .  A
O250       Cu257   2.029       .  S
O250        C260   1.279       .  A
O251       Cu257   2.023       .  S
O251        C261   1.281       .  A
O252       Cu257   2.032       .  S
O252        C262   1.279       .  A
O253       Cu258   2.010       .  S
O253        C262   1.278       .  A
O254       Cu258   2.020       .  S
O254        C261   1.278       .  A
O255       Cu258   2.036       .  S
O255        C260   1.281       .  A
O256       Cu258   2.019       .  S
O256        C259   1.278       .  A
Cu257      Cu258   2.369       .  S
C260        C273   1.486   1_455  S
C261        C678   1.496       .  S
C262        C697   1.483       .  S
O263       Cu271   2.034       .  S
O263        C273   1.281       .  A
O264       Cu271   2.022       .  S
O264        C274   1.279       .  A
O265       Cu271   2.003       .  S
O265        C275   1.277       .  A
O266       Cu271   2.012       .  S
O266        C276   1.278       .  A
O267       Cu272   2.010       .  S
O267        C276   1.279       .  A
O268       Cu272   2.019       .  S
O268        C275   1.278       .  A
O269       Cu272   2.021       .  S
O269        C274   1.279       .  A
O270       Cu272   2.032       .  S
O270        C273   1.280       .  A
Cu271      Cu272   2.373       .  S
C275        C622   1.473       .  S
C276        C641   1.480       .  S
C277        C278   1.526       .  S
C277        C283   1.526       .  S
C277        C281   1.519       .  S
C277        C650   1.545       .  S
C278        H285   1.079       .  S
C278        C279   1.376       .  D
C279        C280   1.550       .  S
C279        C330   1.512       .  S
C280        C284   1.566       .  S
C280        C282   1.547       .  S
C280        H286   1.108       .  S
C281        H287   1.080       .  S
C281        C282   1.368       .  D
C282        C403   1.508   1_655  S
C283        H288   1.080       .  S
C283        C284   1.373       .  D
C284        C304   1.478       .  S
C289        C290   1.516       .  S
C289        C295   1.530       .  S
C289        C293   1.515       .  S
C289        C613   1.534       .  S
C290        H297   1.078       .  S
C290        C291   1.372       .  D
C291        C292   1.567       .  S
C291        C342   1.517       .  S
C292        C296   1.559       .  S
C292        C294   1.554       .  S
C292        H298   1.108       .  S
C293        H299   1.080       .  S
C293        C294   1.366       .  D
C294        C415   1.509   1_655  S
C295        H300   1.085       .  S
C295        C296   1.370       .  D
C296        C321   1.479       .  S
N301        N302   1.322       .  A
N301        C305   1.350       .  A
N301       Cu309   2.101       .  S
N302        C303   1.344       .  A
N302       Cu308   2.077       .  S
C303        C304   1.386       .  A
C303        H306   1.082       .  S
C304        C305   1.391       .  A
C305        H307   1.082       .  S
Cu308       N311   2.077       .  S
Cu309       N319   2.101   1_556  S
Cu310       N312   2.081   1_554  S
Cu310       N318   2.081       .  S
N311        N312   1.322       .  A
N311        C315   1.346       .  A
N312        C313   1.347       .  A
C313        C314   1.385       .  A
C313        H316   1.082   1_556  S
C314        C315   1.383       .  A
C315        H317   1.082       .  S
N318        N319   1.322       .  A
N318        C322   1.344       .  A
N319        C320   1.351       .  A
C320        C321   1.390       .  A
C320        H323   1.082       .  S
C321        C322   1.386       .  A
C322        H324   1.082       .  S
C325        C326   1.519       .  S
C325        C331   1.528       .  S
C325        C329   1.517       .  S
C325        C594   1.534       .  S
C326        H333   1.080       .  S
C326        C327   1.368       .  D
C327        C328   1.550       .  S
C327        C454   1.509   1_655  S
C328        C332   1.559       .  S
C328        C330   1.562       .  S
C328        H334   1.107       .  S
C329        H335   1.078       .  S
C329        C330   1.370       .  D
C331        H336   1.084       .  S
C331        C332   1.371       .  D
C332        C369   1.475       .  S
C337        C338   1.523       .  S
C337        C343   1.518       .  S
C337        C341   1.536       .  S
C337        C566   1.549       .  S
C338        H345   1.077       .  S
C338        C339   1.370       .  D
C339        C340   1.549       .  S
C339        C466   1.506   1_655  S
C340        C344   1.559       .  S
C340        C342   1.552       .  S
C340        H346   1.107       .  S
C341        H347   1.071       .  S
C341        C342   1.379       .  D
C343        H348   1.086       .  S
C343        C344   1.368       .  D
C344        C352   1.476       .  S
N349        N350   1.323       .  A
N349        C353   1.349       .  A
N349       Cu357   2.093   1_544  S
N350        C351   1.344       .  A
N350       Cu356   2.088       .  S
C351        C352   1.387       .  A
C351        H354   1.082       .  S
C352        C353   1.389       .  A
C353        H355   1.082       .  S
Cu356       N359   2.089   1_554  S
Cu357       N367   2.092       .  S
Cu358       N360   2.076       .  S
Cu358       N366   2.076       .  S
N359        N360   1.322   1_545  A
N359        C363   1.350       .  A
N360        C361   1.345       .  A
C361        C362   1.383       .  A
C361        H364   1.082       .  S
C362        C363   1.387   1_565  A
C363        H365   1.082   1_556  S
N366        N367   1.321       .  A
N366        C370   1.343       .  A
N367        C368   1.350       .  A
C368        C369   1.390       .  A
C368        H371   1.082       .  S
C369        C370   1.385       .  A
C370        H372   1.082       .  S
O373       Cu381   1.996       .  S
O373        C383   1.278       .  A
O374       Cu381   2.010       .  S
O374        C384   1.278   1_545  A
O375       Cu381   2.010       .  S
O375        C385   1.277   1_545  A
O376       Cu381   2.029       .  S
O376        C386   1.279   1_545  A
O377       Cu382   2.031       .  S
O377        C386   1.280       .  A
O378       Cu382   2.029       .  S
O378        C385   1.280       .  A
O379       Cu382   2.022       .  S
O379        C384   1.279       .  A
O380       Cu382   2.028       .  S
O380        C383   1.279   1_565  A
Cu381      Cu382   2.371   1_545  S
C383        C501   1.485       .  S
C384        C538   1.480       .  S
C386        C398   1.484   1_455  S
O387       Cu395   2.006       .  S
O387        C397   1.276       .  A
O388       Cu395   2.026       .  S
O388        C398   1.279       .  A
O389       Cu395   2.011       .  S
O389        C399   1.278       .  A
O390       Cu395   2.020       .  S
O390        C400   1.280   1_565  A
O391       Cu396   2.018       .  S
O391        C400   1.279       .  A
O392       Cu396   2.019       .  S
O392        C399   1.278   1_545  A
O393       Cu396   2.033       .  S
O393        C398   1.281   1_545  A
O394       Cu396   2.027       .  S
O394        C397   1.280   1_545  A
Cu395      Cu396   2.371   1_565  S
C399        C585   1.478       .  S
C400        C557   1.495       .  S
C401        C402   1.512       .  S
C401        C407   1.534       .  S
C401        C405   1.513       .  S
C401        C706   1.538       .  S
C402        H409   1.080       .  S
C402        C403   1.366       .  D
C403        C404   1.552       .  S
C404        C408   1.552       .  S
C404        C406   1.565       .  S
C404        H410   1.109       .  S
C405        H411   1.086       .  S
C405        C406   1.374       .  D
C406        C451   1.516       .  S
C407        H412   1.084       .  S
C407        C408   1.373       .  D
C408        C445   1.472       .  S
C413        C414   1.530       .  S
C413        C419   1.516       .  S
C413        C417   1.527       .  S
C413        C669   1.549       .  S
C414        H421   1.077       .  S
C414        C415   1.374       .  D
C415        C416   1.548       .  S
C416        C420   1.558       .  S
C416        C418   1.551       .  S
C416        H422   1.107       .  S
C417        H423   1.065       .  S
C417        C418   1.377       .  D
C418        C463   1.511       .  S
C419        H424   1.087       .  S
C419        C420   1.367       .  D
C420        C428   1.475       .  S
N425        N426   1.322       .  A
N425        C429   1.348       .  A
N425       Cu433   2.091   1_554  S
N426        C427   1.344       .  A
N426       Cu432   2.083   1_554  S
C427        C428   1.386       .  A
C427        H430   1.082       .  S
C428        C429   1.390       .  A
C429        H431   1.082       .  S
Cu432       N435   2.083       .  S
Cu433       N443   2.090       .  S
Cu434       N436   2.072       .  S
Cu434       N442   2.071       .  S
N435        N436   1.322       .  A
N435        C439   1.347       .  A
N436        C437   1.346       .  A
C437        C438   1.384       .  A
C437        H440   1.082       .  S
C438        C439   1.386       .  A
C439        H441   1.082       .  S
N442        N443   1.322       .  A
N442        C446   1.342       .  A
N443        C444   1.349       .  A
C444        C445   1.388       .  A
C444        H447   1.082       .  S
C445        C446   1.382       .  A
C446        H448   1.082       .  S
C449        C450   1.530       .  S
C449        C455   1.514       .  S
C449        C453   1.524       .  S
C449        C529   1.543       .  S
C450        H457   1.086       .  S
C450        C451   1.374       .  D
C451        C452   1.556       .  S
C452        C456   1.568       .  S
C452        C454   1.549       .  S
C452        H458   1.108       .  S
C453        H459   1.079       .  S
C453        C454   1.370       .  D
C455        H460   1.087       .  S
C455        C456   1.366       .  D
C456        C493   1.481       .  S
C461        C462   1.514       .  S
C461        C467   1.531       .  S
C461        C465   1.519       .  S
C461        C510   1.534       .  S
C462        H469   1.076       .  S
C462        C463   1.371       .  D
C463        C464   1.559       .  S
C464        C468   1.557       .  S
C464        C466   1.548       .  S
C464        H470   1.107       .  S
C465        H471   1.079       .  S
C465        C466   1.368       .  D
C467        H472   1.084       .  S
C467        C468   1.372       .  D
C468        C476   1.475       .  S
N473        N474   1.322       .  A
N473        C477   1.350       .  A
N473       Cu481   2.096   1_545  S
N474        C475   1.343       .  A
N474       Cu480   2.072       .  S
C475        C476   1.383       .  A
C475        H478   1.082       .  S
C476        C477   1.389       .  A
C477        H479   1.082       .  S
Cu480       N483   2.072       .  S
Cu481       N491   2.097   1_554  S
Cu482       N484   2.097       .  S
Cu482       N490   2.097       .  S
N483        N484   1.322   1_544  A
N483        C487   1.346       .  A
N484        C485   1.350       .  A
C485        C486   1.389   1_556  A
C485        H488   1.082       .  S
C486        C487   1.383   1_565  A
C487        H489   1.082       .  S
N490        N491   1.323       .  A
N490        C494   1.345       .  A
N491        C492   1.350       .  A
C492        C493   1.391       .  A
C492        H495   1.082       .  S
C493        C494   1.390       .  A
C494        H496   1.082       .  S
C497        C498   1.406       .  A
C497        C502   1.406   1_545  A
C497        H507   1.083   1_545  S
C498        C503   1.487       .  S
C498        C499   1.411       .  A
C499        C500   1.395       .  A
C499        N504   1.430       .  S
C500        C501   1.404       .  A
C500        H505   1.084       .  S
C501        C502   1.413   1_545  A
C502        N506   1.428       .  S
C503        C508   1.411       .  A
C503        C512   1.397       .  A
N504        O519   1.262       .  A
N504        O520   1.262       .  A
N506        O517   1.262       .  A
N506        O518   1.262       .  A
C508        C509   1.408       .  A
C508        N513   1.428       .  S
C509        C510   1.409       .  A
C509        H514   1.079       .  S
C510        C511   1.426       .  A
C511        C512   1.390       .  A
C511        N515   1.434       .  S
C512        H516   1.083       .  S
N513        O523   1.262   1_545  A
N513        O524   1.262       .  A
N515        O521   1.262       .  A
N515        O522   1.262       .  A
C525        C526   1.397       .  A
C525        C530   1.402       .  A
C525        H535   1.086       .  S
C526        C531   1.477       .  S
C526        C527   1.404       .  A
C527        C528   1.397       .  A
C527        N532   1.429       .  S
C528        C529   1.413       .  A
C528        H533   1.089       .  S
C529        C530   1.424       .  A
C530        N534   1.430       .  S
C531        C536   1.410       .  A
C531        C540   1.398       .  A
N532        O547   1.262       .  A
N532        O548   1.262       .  A
N534        O545   1.262       .  A
N534        O546   1.262       .  A
C536        C537   1.402       .  A
C536        N541   1.431       .  S
C537        C538   1.404       .  A
C537        H542   1.084       .  S
C538        C539   1.414       .  A
C539        C540   1.402       .  A
C539        N543   1.429   1_565  S
C540        H544   1.084       .  S
N541        O551   1.262       .  A
N541        O552   1.261       .  A
N543        O549   1.262       .  A
N543        O550   1.262       .  A
C553        C554   1.405       .  A
C553        C558   1.402       .  A
C553        H563   1.083       .  S
C554        C559   1.494       .  S
C554        C555   1.411   1_545  A
C555        C556   1.405       .  A
C555        N560   1.429       .  S
C556        C557   1.409   1_565  A
C556        H561   1.083       .  S
C557        C558   1.415       .  A
C558        N562   1.429       .  S
C559        C564   1.410       .  A
C559        C568   1.403       .  A
N560        O575   1.262       .  A
N560        O576   1.262       .  A
N562        O573   1.262       .  A
N562        O574   1.262       .  A
C564        C565   1.401       .  A
C564        N569   1.430       .  S
C565        C566   1.411       .  A
C565        H570   1.078       .  S
C566        C567   1.422       .  A
C567        C568   1.405       .  A
C567        N571   1.431       .  S
C568        H572   1.083   1_545  S
N569        O579   1.262       .  A
N569        O580   1.262       .  A
N571        O577   1.262   1_545  A
N571        O578   1.262       .  A
C581        C582   1.401       .  A
C581        C586   1.399       .  A
C581        H591   1.084       .  S
C582        C587   1.481       .  S
C582        C583   1.412       .  A
C583        C584   1.404       .  A
C583        N588   1.429       .  S
C584        C585   1.403       .  A
C584        H589   1.084   1_565  S
C585        C586   1.411       .  A
C586        N590   1.429       .  S
C587        C592   1.408       .  A
C587        C596   1.394       .  A
N588        O603   1.262       .  A
N588        O604   1.261   1_565  A
N590        O601   1.262       .  A
N590        O602   1.262       .  A
C592        C593   1.407       .  A
C592        N597   1.428       .  S
C593        C594   1.411       .  A
C593        H598   1.079       .  S
C594        C595   1.427       .  A
C595        C596   1.392       .  A
C595        N599   1.434       .  S
C596        H600   1.085       .  S
N597        O607   1.262       .  A
N597        O608   1.261   1_565  A
N599        O605   1.262       .  A
N599        O606   1.262       .  A
C609        C610   1.395       .  A
C609        C614   1.393       .  A
C609        H619   1.085       .  S
C610        C615   1.479       .  S
C610        C611   1.406       .  A
C611        C612   1.405       .  A
C611        N616   1.428       .  S
C612        C613   1.412       .  A
C612        H617   1.080       .  S
C613        C614   1.427       .  A
C614        N618   1.433       .  S
C615        C620   1.408       .  A
C615        C624   1.405       .  A
N616        O631   1.262       .  A
N616        O632   1.261       .  A
N618        O629   1.262       .  A
N618        O630   1.262       .  A
C620        C621   1.397       .  A
C620        N625   1.429       .  S
C621        C622   1.402       .  A
C621        H626   1.084       .  S
C622        C623   1.409       .  A
C623        C624   1.404       .  A
C623        N627   1.429       .  S
C624        H628   1.084       .  S
N625        O635   1.262       .  A
N625        O636   1.262       .  A
N627        O633   1.262       .  A
N627        O634   1.262       .  A
C637        C638   1.402       .  A
C637        C642   1.399       .  A
C637        H647   1.084       .  S
C638        C643   1.482       .  S
C638        C639   1.409       .  A
C639        C640   1.404       .  A
C639        N644   1.428       .  S
C640        C641   1.404       .  A
C640        H645   1.084       .  S
C641        C642   1.412       .  A
C642        N646   1.430       .  S
C643        C648   1.402       .  A
C643        C652   1.404       .  A
N644        O659   1.262       .  A
N644        O660   1.261       .  A
N646        O657   1.262       .  A
N646        O658   1.262       .  A
C648        C649   1.390       .  A
C648        N653   1.432       .  S
C649        C650   1.415       .  A
C649        H654   1.084       .  S
C650        C651   1.421       .  A
C651        C652   1.413       .  A
C651        N655   1.425       .  S
C652        H656   1.083       .  S
N653        O663   1.262       .  A
N653        O664   1.262       .  A
N655        O661   1.262       .  A
N655        O662   1.262       .  A
C665        C666   1.402       .  A
C665        C670   1.404       .  A
C665        H675   1.083       .  S
C666        C671   1.493       .  S
C666        C667   1.411       .  A
C667        C668   1.403       .  A
C667        N672   1.428       .  S
C668        C669   1.410       .  A
C668        H673   1.084       .  S
C669        C670   1.421       .  A
C670        N674   1.433       .  S
C671        C676   1.413       .  A
C671        C680   1.403       .  A
N672        O687   1.262       .  A
N672        O688   1.262       .  A
N674        O685   1.263       .  A
N674        O686   1.262       .  A
C676        C677   1.401       .  A
C676        N681   1.430       .  S
C677        C678   1.406       .  A
C677        H682   1.083       .  S
C678        C679   1.419       .  A
C679        C680   1.406       .  A
C679        N683   1.428       .  S
C680        H684   1.083       .  S
N681        O691   1.262       .  A
N681        O692   1.262       .  A
N683        O689   1.262       .  A
N683        O690   1.262       .  A
C693        C694   1.398       .  A
C693        C698   1.399       .  A
C693        H703   1.084       .  S
C694        C699   1.483       .  S
C694        C695   1.413       .  A
C695        C696   1.409       .  A
C695        N700   1.430       .  S
C696        C697   1.406       .  A
C696        H701   1.084       .  S
C697        C698   1.412       .  A
C698        N702   1.428       .  S
C699        C704   1.408       .  A
C699        C708   1.394       .  A
N700        O715   1.262       .  A
N700        O716   1.262       .  A
N702        O713   1.262       .  A
N702        O714   1.262       .  A
C704        C705   1.408       .  A
C704        N709   1.429       .  S
C705        C706   1.412       .  A
C705        H710   1.079       .  S
C706        C707   1.429       .  A
C707        C708   1.394       .  A
C707        N711   1.433       .  S
C708        H712   1.085       .  S
N709        O719   1.262       .  A
N709        O720   1.262       .  A
N711        O717   1.262       .  A
N711        O718   1.262       .  A
C721        C722   1.402       .  A
C721        C726   1.403       .  A
C721        H731   1.084       .  S
C722        C727   1.488       .  S
C722        C723   1.409       .  A
C723        C724   1.400       .  A
C723        N728   1.429   1_545  S
C724        C725   1.411       .  A
C724        H729   1.084       .  S
C725        C726   1.421       .  A
C726        N730   1.432       .  S
C727        C732   1.411       .  A
C727        C736   1.403   1_545  A
N728        O743   1.262       .  A
N728        O744   1.262       .  A
N730        O741   1.263       .  A
N730        O742   1.262       .  A
C732        C733   1.398       .  A
C732        N737   1.430       .  S
C733        C734   1.406       .  A
C733        H738   1.084       .  S
C734        C735   1.418   1_545  A
C735        C736   1.405       .  A
C735        N739   1.429       .  S
C736        H740   1.083       .  S
N737        O747   1.262       .  A
N737        O748   1.262       .  A
N739        O745   1.262       .  A
N739        O746   1.262       .  A
C749        C750   1.393       .  A
C749        C754   1.393       .  A
C749        H759   1.085       .  S
C750        C755   1.482       .  S
C750        C751   1.408       .  A
C751        C752   1.410       .  A
C751        N756   1.428       .  S
C752        C753   1.412       .  A
C752        H757   1.080       .  S
C753        C754   1.428       .  A
C754        N758   1.432       .  S
C755        C760   1.413       .  A
C755        C764   1.400       .  A
N756        O771   1.262       .  A
N756        O772   1.262   1_565  A
N758        O769   1.261       .  A
N758        O770   1.262       .  A
C760        C761   1.407       .  A
C760        N765   1.430       .  S
C761        C762   1.404       .  A
C761        H766   1.083       .  S
C762        C763   1.411       .  A
C763        C764   1.400       .  A
C763        N767   1.429       .  S
C764        H768   1.084       .  S
N765        O775   1.262       .  A
N765        O776   1.261   1_565  A
N767        O773   1.262       .  A
N767        O774   1.261       .  A
C777        C778   1.399       .  A
C777        C782   1.404       .  A
C777        H787   1.084   1_545  S
C778        C783   1.482       .  S
C778        C779   1.406       .  A
C779        C780   1.399       .  A
C779        N784   1.430       .  S
C780        C781   1.412       .  A
C780        H785   1.077       .  S
C781        C782   1.423       .  A
C782        N786   1.431       .  S
C783        C788   1.411       .  A
C783        C792   1.401   1_545  A
N784        O799   1.262       .  A
N784        O800   1.262       .  A
N786        O797   1.262       .  A
N786        O798   1.262   1_545  A
C788        C789   1.400       .  A
C788        N793   1.430       .  S
C789        C790   1.404       .  A
C789        H794   1.084       .  S
C790        C791   1.415   1_545  A
C791        C792   1.404       .  A
C791        N795   1.428       .  S
C792        H796   1.084       .  S
N793        O803   1.262       .  A
N793        O804   1.262       .  A
N795        O801   1.262       .  A
N795        O802   1.262       .  A
C805        C806   1.396       .  A
C805        C810   1.392       .  A
C805        H815   1.084       .  S
C806        C811   1.486       .  S
C806        C807   1.409       .  A
C807        C808   1.407       .  A
C807        N812   1.428       .  S
C808        C809   1.412       .  A
C808        H813   1.078       .  S
C809        C810   1.425       .  A
C810        N814   1.432       .  S
C811        C816   1.411       .  A
C811        C820   1.406       .  A
N812        O827   1.262   1_565  A
N812        O828   1.262       .  A
N814        O825   1.261       .  A
N814        O826   1.262       .  A
C816        C817   1.396       .  A
C816        N821   1.430       .  S
C817        C818   1.401       .  A
C817        H822   1.084       .  S
C818        C819   1.411       .  A
C819        C820   1.405       .  A
C819        N823   1.429   1_565  S
C820        H824   1.083       .  S
N821        O831   1.262       .  A
N821        O832   1.262       .  A
N823        O829   1.262       .  A
N823        O830   1.262       .  A
C833        C834   1.402       .  A
C833        C838   1.404       .  A
C833        H843   1.084       .  S
C834        C839   1.482       .  S
C834        C835   1.408       .  A
C835        C836   1.398       .  A
C835        N840   1.429       .  S
C836        C837   1.405       .  A
C836        H841   1.084       .  S
C837        C838   1.416       .  A
C838        N842   1.429       .  S
C839        C844   1.407       .  A
C839        C848   1.399       .  A
N840        O855   1.262       .  A
N840        O856   1.261       .  A
N842        O853   1.262       .  A
N842        O854   1.262       .  A
C844        C845   1.402       .  A
C844        N849   1.429       .  S
C845        C846   1.412       .  A
C845        H850   1.084       .  S
C846        C847   1.422       .  A
C847        C848   1.403       .  A
C847        N851   1.432       .  S
C848        H852   1.084       .  S
N849        O859   1.261       .  A
N849        O860   1.262       .  A
N851        O857   1.262       .  A
N851        O858   1.263       .  A
C861        C862   1.405       .  A
C861        C866   1.398       .  A
C861        H871   1.084       .  S
C862        C867   1.489       .  S
C862        C863   1.410       .  A
C863        C864   1.406       .  A
C863        N868   1.428       .  S
C864        C865   1.407       .  A
C864        H869   1.084       .  S
C865        C866   1.409       .  A
C866        N870   1.429       .  S
C867        C872   1.405       .  A
C867        C876   1.402       .  A
N868        O883   1.262       .  A
N868        O884   1.262       .  A
N870        O881   1.262       .  A
N870        O882   1.262       .  A
C872        C873   1.396       .  A
C872        N877   1.431       .  S
C873        C874   1.415       .  A
C873        H878   1.075       .  S
C874        C875   1.423       .  A
C875        C876   1.409       .  A
C875        N879   1.429       .  S
C876        H880   1.083       .  S
N877        O887   1.262       .  A
N877        O888   1.262       .  A
N879        O885   1.262       .  A
N879        O886   1.261       .  A
C889        C890   1.406       .  A
C889        C894   1.402       .  A
C889        H899   1.083       .  S
C890        C895   1.496       .  S
C890        C891   1.417       .  A
C891        C892   1.401       .  A
C891        N896   1.427       .  S
C892        C893   1.397       .  A
C892        H897   1.084       .  S
C893        C894   1.408       .  A
C894        N898   1.429       .  S
C895        C900   1.410       .  A
C895        C904   1.404       .  A
N896        O911   1.262       .  A
N896        O912   1.261       .  A
N898        O909   1.262       .  A
N898        O910   1.262       .  A
C900        C901   1.398       .  A
C900        N905   1.430       .  S
C901        C902   1.414       .  A
C901        H906   1.078       .  S
C902        C903   1.421       .  A
C903        C904   1.404       .  A
C903        N907   1.430       .  S
C904        H908   1.083       .  S
N905        O915   1.262       .  A
N905        O916   1.262       .  A
N907        O913   1.262       .  A
N907        O914   1.262       .  A
C917        C918   1.398       .  A
C917        C922   1.402       .  A
C917        H927   1.084       .  S
C918        C923   1.474       .  S
C918        C919   1.409       .  A
C919        C920   1.400       .  A
C919        N924   1.430       .  S
C920        C921   1.403       .  A
C920        H925   1.083       .  S
C921        C922   1.414       .  A
C922        N926   1.428       .  S
C923        C928   1.404       .  A
C923        C932   1.397       .  A
N924        O939   1.262       .  A
N924        O940   1.262       .  A
N926        O937   1.262       .  A
N926        O938   1.262       .  A
C928        C929   1.399       .  A
C928        N933   1.428       .  S
C929        C930   1.411       .  A
C929        H934   1.079       .  S
C930        C931   1.421       .  A
C931        C932   1.400       .  A
C931        N935   1.431       .  S
C932        H936   1.084       .  S
N933        O943   1.262       .  A
N933        O944   1.262       .  A
N935        O941   1.262       .  A
N935        O942   1.262       .  A
