geometry optimzed in LAMMPS
_audit_creation_date              2020-12-01 
_audit_creation_method            'lammps2cif' 
_symmetry_space_group_name_H-M    'P1' 
_symmetry_Int_Tables_number       1 
_symmetry_cell_setting            triclinic 
loop_ 
_symmetry_equiv_pos_as_xyz 
  x,y,z 
_cell_length_a                    73.93813397 
_cell_length_b                    73.95070653263988 
_cell_length_c                    35.297529508418016 
_cell_angle_alpha                 90.83393240437465 
_cell_angle_beta                  90.80792074284584 
_cell_angle_gamma                 90.00597894923972 
loop_ 
_atom_site_label 
_atom_site_type_symbol 
_atom_site_fract_x 
_atom_site_fract_y 
_atom_site_fract_z 
_atom_site_charge 
N1          N  0.22280017  0.80162386  0.14725855     0.02100
C2          C  0.22321369  0.80180248  0.10917332    -0.08700
C3          C  0.21076070  0.81417581  0.09552759    -0.04200
C4          C  0.20233071  0.82193287  0.12688288    -0.04900
C5          C  0.21018469  0.81376563  0.15863047    -0.08800
N6          N  0.22179376  0.80054126  0.35662441     0.02100
C7          C  0.22226492  0.80063368  0.39474310    -0.08700
C8          C  0.20995363  0.81305531  0.40866441    -0.04200
C9          C  0.20151033  0.82091850  0.37748939    -0.04900
C10         C  0.20925963  0.81281995  0.34550973    -0.08800
N11         N  0.27882070  0.74443804  0.48314460     0.02100
C12         C  0.27950202  0.74429374  0.02126160    -0.08700
C13         C  0.29183184  0.73135678  0.03347919    -0.04200
C14         C  0.29898002  0.72330385  0.00085842    -0.04900
C15         C  0.29052060  0.73178494  0.47036525    -0.08800
N16         N  0.27756357  0.74382343  0.27029667     0.02100
C17         C  0.27824476  0.74368187  0.23223943    -0.08700
C18         C  0.29056896  0.73077586  0.21987580    -0.04200
C19         C  0.29769027  0.72268221  0.25237577    -0.04900
C20         C  0.28928484  0.73117791  0.28297397    -0.08800
N21         N  0.77758306  0.79624883  0.15708064     0.02100
C22         C  0.77715683  0.79627176  0.11896352    -0.08700
C23         C  0.78943300  0.80875723  0.10577746    -0.04200
C24         C  0.79779784  0.81678601  0.13739796    -0.04900
C25         C  0.79003627  0.80865252  0.16891188    -0.08800
N26         N  0.77725108  0.79592526  0.40566831     0.02100
C27         C  0.77772485  0.79610765  0.36758196    -0.08700
C28         C  0.79043122  0.80861501  0.35577312    -0.04200
C29         C  0.79803963  0.81641161  0.38864014    -0.04900
C30         C  0.78948345  0.80816050  0.41883423    -0.08800
N31         N  0.71981084  0.74091885  0.48977988     0.02100
C32         C  0.71949817  0.74014115  0.02783812    -0.08700
C33         C  0.70694362  0.72734144  0.03899247    -0.04200
C34         C  0.69926822  0.71999567  0.50573965    -0.04900
C35         C  0.70761480  0.72879589  0.47598866    -0.08800
N36         N  0.72071090  0.74006322  0.27690795     0.02100
C37         C  0.72067089  0.73946850  0.23879273    -0.08700
C38         C  0.70795628  0.72693324  0.22550141    -0.04200
C39         C  0.69993700  0.71958498  0.25750197    -0.04900
C40         C  0.70823104  0.72811287  0.28867477    -0.08800
N41         N  0.77597753  0.24249367  0.10840220     0.02100
C42         C  0.77628630  0.24200206  0.14648332    -0.08700
C43         C  0.78886573  0.22940756  0.15888329    -0.04200
C44         C  0.79653636  0.22181381  0.12644073    -0.04900
C45         C  0.78822673  0.23033057  0.09576031    -0.08800
N46         N  0.77661967  0.24298233  0.39616656     0.02100
C47         C  0.77687876  0.24263306  0.35805127    -0.08700
C48         C  0.78936171  0.22997384  0.34541732    -0.04200
C49         C  0.79703832  0.22224781  0.37770396    -0.04900
C50         C  0.78879724  0.23069750  0.40854733    -0.08800
N51         N  0.71982455  0.29842635  0.48388023     0.02100
C52         C  0.71916441  0.29892697  0.02195463    -0.08700
C53         C  0.70625890  0.31139431  0.03374057    -0.04200
C54         C  0.69868368  0.31874011  0.00084615    -0.04900
C55         C  0.70751184  0.31036859  0.47066990    -0.08800
N56         N  0.72026826  0.29875351  0.27019942     0.02100
C57         C  0.71964830  0.29911715  0.23211079    -0.08700
C58         C  0.70689976  0.31163320  0.21999753    -0.04200
C59         C  0.69939183  0.31914645  0.25271792    -0.04900
C60         C  0.70805169  0.31083122  0.28313927    -0.08800
N61         N  0.38562547  0.46358442  0.92901168    -0.23600
N62         N  0.40280731  0.46715447  0.92233658    -0.31500
C63         C  0.40500890  0.48511809  0.91940321     0.04700
C64         C  0.38847427  0.49335011  0.92445252     0.10800
C65         C  0.37640526  0.47936191  0.93054486    -0.02300
H66         H  0.41783246  0.49172944  0.91483027     0.11400
H67         H  0.36213764  0.48057090  0.93649730     0.12600
Cu68       Cu  0.42293630  0.44769364  0.92015481     0.44200
Cu69       Cu  0.37652463  0.43709136  0.93737311     0.42000
Cu70       Cu  0.41161557  0.40100658  0.93402014     0.43900
N71         N  0.44214487  0.42730186  0.92165662    -0.31000
N72         N  0.43833446  0.41002015  0.92657804    -0.25200
C73         C  0.45402961  0.40061399  0.92741239    -0.01300
C74         C  0.46821226  0.41266495  0.92285871     0.10900
C75         C  0.46016043  0.42938338  0.91934098     0.04700
H76         H  0.45505464  0.38619295  0.93171735     0.12300
H77         H  0.46692001  0.44221816  0.91588128     0.11400
N78         N  0.38396223  0.39657335  0.94417058    -0.32400
N79         N  0.37152666  0.40949299  0.94557807    -0.24600
C80         C  0.35548544  0.40203853  0.95433500     0.00200
C81         C  0.35786589  0.38363274  0.95868769     0.08800
C82         C  0.37603777  0.38062004  0.95198003     0.06900
H83         H  0.34305691  0.40954725  0.95795671     0.12000
H84         H  0.38307936  0.36782093  0.95344740     0.10800
N85         N  0.44026666  0.40944693  0.32045845    -0.23600
N86         N  0.44393299  0.42696296  0.32079773    -0.31500
C87         C  0.46194900  0.42937945  0.32188865     0.04700
C88         C  0.47014224  0.41264939  0.32232742     0.10800
C89         C  0.45606370  0.40022734  0.32144359    -0.02300
H90         H  0.46859409  0.44241695  0.32213923     0.11400
H91         H  0.45720743  0.38564072  0.32103203     0.12600
Cu92       Cu  0.42455929  0.44716238  0.31930515     0.44200
Cu93       Cu  0.41357346  0.39969241  0.31654296     0.42000
Cu94       Cu  0.37791547  0.43532962  0.31315356     0.43900
N95         N  0.40412642  0.46629910  0.31921106    -0.31000
N96         N  0.38671952  0.46224063  0.31733807    -0.25200
C97         C  0.37709945  0.47779352  0.31746129    -0.01300
C98         C  0.38917426  0.49215304  0.31947546     0.10900
C99         C  0.40610606  0.48436127  0.32052493     0.04700
H100        H  0.36249991  0.47857748  0.31569252     0.12300
H101        H  0.41897959  0.49131487  0.32183585     0.11400
N102        N  0.37320137  0.40750466  0.30619878    -0.32400
N103        N  0.38579782  0.39474113  0.30755921    -0.24600
C104        C  0.37793048  0.37858867  0.29984248     0.00200
C105        C  0.35963083  0.38133364  0.29327393     0.08800
C106        C  0.35712338  0.39976080  0.29757390     0.06900
H107        H  0.38510410  0.36586111  0.29805594     0.12000
H108        H  0.34459388  0.40710240  0.29370006     0.10800
N109        N  0.38761199  0.57801949  0.43643780    -0.23600
N110        N  0.40463536  0.57400231  0.42896917    -0.31500
C111        C  0.40625823  0.55602018  0.42405658     0.04700
C112        C  0.38949196  0.54824849  0.92855190     0.10800
C113        C  0.37790352  0.56252312  0.93643886    -0.02300
H114        H  0.41881652  0.54908885  0.41816153     0.11400
H115        H  0.36360416  0.56169803  0.94228943     0.12600
Cu116      Cu  0.42521193  0.59296137  0.42715483     0.44200
Cu117      Cu  0.37934663  0.60472017  0.44726354     0.42000
Cu118      Cu  0.41552460  0.63977408  0.44719721     0.43900
N119        N  0.44489299  0.61290078  0.42808846    -0.31000
N120        N  0.44173410  0.63017978  0.43566612    -0.25200
C121        C  0.45767580  0.63916969  0.43554777    -0.01300
C122        C  0.47131648  0.62685618  0.42745380     0.10900
C123        C  0.46270733  0.61041787  0.42296404     0.04700
H124        H  0.45925690  0.65346509  0.44167803     0.12300
H125        H  0.46898057  0.59746852  0.41719632     0.11400
N126        N  0.38799378  0.64495978  0.45763089    -0.32400
N127        N  0.37514573  0.63242774  0.45756856    -0.24600
C128        C  0.35918237  0.64041904  0.46532157     0.00200
C129        C  0.36204606  0.65877446  0.47055178     0.08800
C130        C  0.38042341  0.66119154  0.46545194     0.06900
H131        H  0.34641488  0.63335150  0.46706002     0.12000
H132        H  0.38777448  0.67383062  0.46730702     0.10800
N133        N  0.38682304  0.57667340  0.30986819    -0.23600
N134        N  0.40390185  0.57297743  0.31832855    -0.31500
C135        C  0.40574208  0.55507732  0.32328972     0.04700
C136        C  0.38907511  0.54702226  0.31777767     0.10800
C137        C  0.37731462  0.56104563  0.30922682    -0.02300
H138        H  0.41839359  0.54837856  0.32980618     0.11400
H139        H  0.36303372  0.55995390  0.30246425     0.12600
Cu140      Cu  0.42433750  0.59218425  0.32115786     0.44200
Cu141      Cu  0.37810758  0.60313288  0.29885301     0.42000
Cu142      Cu  0.41364809  0.63875165  0.30384823     0.43900
N143        N  0.44377464  0.61240609  0.32070718    -0.31000
N144        N  0.44018798  0.62963133  0.31432146    -0.25200
C145        C  0.45598235  0.63887449  0.31417982    -0.01300
C146        C  0.47000508  0.62678435  0.32079576     0.10900
C147        C  0.46174975  0.61020827  0.32474401     0.04700
H148        H  0.45719224  0.65317958  0.30871539     0.12300
H149        H  0.46836059  0.59735736  0.32933204     0.11400
N150        N  0.38608010  0.64351683  0.29208075    -0.32400
N151        N  0.37343512  0.63079267  0.29002113    -0.24600
C152        C  0.35738199  0.63860926  0.28174705     0.00200
C153        C  0.36000532  0.65704608  0.27844762     0.08800
C154        C  0.37830782  0.65968238  0.28519839     0.06900
H155        H  0.34471249  0.63138876  0.27854582     0.12000
H156        H  0.38547160  0.67243922  0.28518001     0.10800
N157        N  0.55310712  0.40859579  0.43103094    -0.23600
N158        N  0.54983332  0.42581071  0.42387613    -0.31500
C159        C  0.53190168  0.42829958  0.41968041     0.04700
C160        C  0.52335296  0.41191371  0.92421492     0.10800
C161        C  0.53714921  0.39964569  0.93141630    -0.02300
H162        H  0.52553198  0.44120335  0.41434737     0.11400
H163        H  0.53567794  0.38541029  0.93732158     0.12600
Cu164      Cu  0.56964804  0.44561376  0.42228141     0.44200
Cu165      Cu  0.57948626  0.39904270  0.44194673     0.42000
Cu166      Cu  0.61579390  0.43386413  0.44276438     0.43900
N167        N  0.59038313  0.46447801  0.42492242    -0.31000
N168        N  0.60746859  0.46045951  0.43255361    -0.25200
C169        C  0.61718620  0.47594805  0.43383916    -0.01300
C170        C  0.60554271  0.49022804  0.42663297     0.10900
C171        C  0.58873426  0.48246707  0.42121234     0.04700
H172        H  0.63150575  0.47677457  0.44038564     0.12300
H173        H  0.57611281  0.48942219  0.41574276     0.11400
N174        N  0.61995053  0.40634225  0.45338365    -0.32400
N175        N  0.60706433  0.39385227  0.45320286    -0.24600
C176        C  0.61463265  0.37774774  0.46165572     0.00200
C177        C  0.63304824  0.38023188  0.46740981     0.08800
C178        C  0.63592596  0.39847040  0.46190676     0.06900
H179        H  0.60725463  0.36516672  0.46355868     0.12000
H180        H  0.64871352  0.40555022  0.46405244     0.10800
N181        N  0.55492300  0.40939478  0.31765194    -0.23600
N182        N  0.55148595  0.42682668  0.32239400    -0.31500
C183        C  0.53353707  0.42927570  0.32525366     0.04700
C184        C  0.52518736  0.41262751  0.32237021     0.10800
C185        C  0.53908756  0.40024839  0.31754592    -0.02300
H186        H  0.52703201  0.44228548  0.32876093     0.11400
H187        H  0.53777833  0.38577238  0.31353509     0.12600
Cu188      Cu  0.57117207  0.44678501  0.32331831     0.44200
Cu189      Cu  0.58129633  0.39980139  0.30939907     0.42000
Cu190      Cu  0.61740631  0.43514155  0.30768665     0.43900
N191        N  0.59168027  0.46584988  0.32204522    -0.31000
N192        N  0.60887961  0.46190238  0.31633328    -0.25200
C193        C  0.61843646  0.47749508  0.31591729    -0.01300
C194        C  0.60654070  0.49175749  0.32167081     0.10900
C195        C  0.58978334  0.48386948  0.32535403     0.04700
H196        H  0.63282435  0.47838720  0.31106455     0.12300
H197        H  0.57703773  0.49074630  0.32954963     0.11400
N198        N  0.62150067  0.40739775  0.29814003    -0.32400
N199        N  0.60872493  0.39480529  0.29880745    -0.24600
C200        C  0.61624844  0.37859858  0.29072394     0.00200
C201        C  0.63451034  0.38112481  0.28467300     0.08800
C202        C  0.63738091  0.39946951  0.28962583     0.06900
H203        H  0.60892077  0.36593963  0.28911620     0.12000
H204        H  0.65007643  0.40658687  0.28700591     0.10800
N205        N  0.60900877  0.57485777  0.43575688    -0.23600
N206        N  0.59186110  0.57125659  0.42747860    -0.31500
C207        C  0.58975626  0.55330954  0.42274273     0.04700
C208        C  0.60631169  0.54511960  0.42818768     0.10800
C209        C  0.61829323  0.55910865  0.43646335    -0.02300
H210        H  0.57699261  0.54668124  0.41647165     0.11400
H211        H  0.63256195  0.55791789  0.44319093     0.12600
Cu212      Cu  0.57158672  0.59056622  0.42482256     0.44200
Cu213      Cu  0.61814756  0.60133072  0.44689040     0.42000
Cu214      Cu  0.58289740  0.63705838  0.44266015     0.43900
N215        N  0.55237437  0.61097656  0.42566689    -0.31000
N216        N  0.55623835  0.62821276  0.43224960    -0.25200
C217        C  0.54060822  0.63770854  0.43259062    -0.01300
C218        C  0.52639219  0.62577838  0.42588559     0.10900
C219        C  0.53435893  0.60901451  0.42169912     0.04700
H220        H  0.53964048  0.65209261  0.43823892     0.12300
H221        H  0.52753231  0.59622048  0.41697466     0.11400
N222        N  0.61046378  0.64181218  0.45454742    -0.32400
N223        N  0.62304009  0.62904689  0.45636785    -0.24600
C224        C  0.63907912  0.63684598  0.46538784     0.00200
C225        C  0.63651309  0.65531592  0.46941663     0.08800
C226        C  0.61825732  0.65798225  0.46230963     0.06900
H227        H  0.65167395  0.62957636  0.46891448     0.12000
H228        H  0.61110897  0.67074385  0.46300607     0.10800
N229        N  0.55494596  0.62922773  0.31553476    -0.23600
N230        N  0.55127051  0.61195187  0.32099181    -0.31500
C231        C  0.53328569  0.60981495  0.32403453     0.04700
C232        C  0.52512075  0.62648029  0.32044139     0.10800
C233        C  0.53920099  0.63855696  0.31504940    -0.02300
H234        H  0.52661855  0.59697807  0.32810224     0.11400
H235        H  0.53807231  0.65295215  0.31049464     0.12600
Cu236      Cu  0.57061746  0.59162849  0.32260965     0.44200
Cu237      Cu  0.58154705  0.63846892  0.30737386     0.42000
Cu238      Cu  0.61706432  0.60298922  0.30647066     0.43900
N239        N  0.59116689  0.57251578  0.32156108    -0.31000
N240        N  0.60834599  0.57641240  0.31558030    -0.25200
C241        C  0.61795346  0.56085514  0.31533698    -0.01300
C242        C  0.60615602  0.54664916  0.32147905     0.10900
C243        C  0.58935882  0.55453381  0.32523446     0.04700
H244        H  0.63233090  0.55993663  0.31034028     0.12300
H245        H  0.57665530  0.54767052  0.32966765     0.11400
N246        N  0.62182507  0.63056578  0.29722730    -0.32400
N247        N  0.60918917  0.64330073  0.29770702    -0.24600
C248        C  0.61700576  0.65936365  0.29033565     0.00200
C249        C  0.63532942  0.65662442  0.28490248     0.08800
C250        C  0.63789721  0.63824936  0.28951259     0.06900
H251        H  0.60984479  0.67209576  0.28883849     0.12000
H252        H  0.65053091  0.63095623  0.28729504     0.10800
N253        N  0.88570133  0.07508408  0.07235865    -0.23600
N254        N  0.90257171  0.07175067  0.06236090    -0.31500
C255        C  0.90477528  0.05383770  0.05726567     0.04700
C256        C  0.88858035  0.04538187  0.06436843     0.10800
C257        C  0.87671396  0.05919081  0.07393515    -0.02300
H258        H  0.91742026  0.04740375  0.04993724     0.11400
H259        H  0.86276144  0.05777318  0.08224851     0.12600
Cu260      Cu  0.92251471  0.09133195  0.05879544     0.44200
Cu261      Cu  0.87658099  0.10139839  0.08476956     0.42000
Cu262      Cu  0.91189235  0.13712089  0.08378422     0.43900
N263        N  0.94172443  0.11175577  0.06069331    -0.31000
N264        N  0.93812607  0.12870578  0.07038127    -0.25200
C265        C  0.95371790  0.13825465  0.07061013    -0.01300
C266        C  0.96763012  0.12665435  0.06048838     0.10900
C267        C  0.95954325  0.11003294  0.05446318     0.04700
H268        H  0.95487251  0.15243862  0.07822169     0.12300
H269        H  0.96618263  0.09747472  0.04693190     0.11400
N270        N  0.88450689  0.14172181  0.09507798    -0.32400
N271        N  0.87182900  0.12903233  0.09539031    -0.24600
C272        C  0.85576044  0.13694037  0.10267955     0.00200
C273        C  0.85847196  0.15537757  0.10716702     0.08800
C274        C  0.87679381  0.15792268  0.10215754     0.06900
H275        H  0.84300985  0.12981593  0.10403101     0.12000
H276        H  0.88398125  0.17066954  0.10298143     0.10800
N277        N  0.94079817  0.12988300  0.42809241    -0.23600
N278        N  0.94423054  0.11296696  0.43751624    -0.31500
C279        C  0.96214591  0.11086307  0.44282836     0.04700
C280        C  0.97051524  0.12718129  0.43646506     0.10800
C281        C  0.95663342  0.13901901  0.42711478    -0.02300
H282        H  0.96863411  0.09824354  0.45010499     0.11400
H283        H  0.95795687  0.15308968  0.41962977     0.12600
Cu284      Cu  0.92464423  0.09301495  0.44077887     0.44200
Cu285      Cu  0.91433448  0.13875612  0.41632269     0.42000
Cu286      Cu  0.87846219  0.10328922  0.41746910     0.43900
N287        N  0.90431750  0.07370006  0.43982166    -0.31000
N288        N  0.88724475  0.07711436  0.43079696    -0.25200
C289        C  0.87784045  0.06143619  0.43140535    -0.01300
C290        C  0.88966631  0.04767917  0.44138937     0.10900
C291        C  0.90625967  0.05594469  0.44644530     0.04700
H292        H  0.86359001  0.06011771  0.42452284     0.12300
H293        H  0.91894373  0.04946782  0.45365827     0.11400
N294        N  0.87386419  0.13080155  0.40691804    -0.32400
N295        N  0.88661939  0.14342322  0.40661723    -0.24600
C296        C  0.87878084  0.15956673  0.39992626     0.00200
C297        C  0.86032222  0.15701897  0.39579963     0.08800
C298        C  0.85766613  0.13867052  0.40040556     0.06900
H299        H  0.88598760  0.17227223  0.39867172     0.12000
H300        H  0.84486661  0.13157319  0.39963847     0.10800
N301        N  0.94121937  0.90838509  0.07090212    -0.23600
N302        N  0.94439782  0.92536444  0.06172038    -0.31500
C303        C  0.96217881  0.92754791  0.05563755     0.04700
C304        C  0.97075339  0.91121944  0.06120167     0.10800
C305        C  0.95711194  0.89930151  0.07092201    -0.02300
H306        H  0.96846754  0.94024833  0.04855725     0.11400
H307        H  0.95866895  0.88522087  0.07820814     0.12600
Cu308      Cu  0.92474296  0.94533824  0.06029799     0.44200
Cu309      Cu  0.91501426  0.89930466  0.08402146     0.42000
Cu310      Cu  0.87887927  0.93421548  0.08379958     0.43900
N311        N  0.90425193  0.96440968  0.06325255    -0.31000
N312        N  0.88734885  0.96067247  0.07216406    -0.25200
C313        C  0.87786247  0.97630135  0.07330622    -0.01300
C314        C  0.88944671  0.99036218  0.06462577     0.10900
C315        C  0.90599170  0.98232697  0.05847438     0.04700
H316        H  0.86374744  0.97738148  0.08069861     0.12300
H317        H  0.91853139  0.98905834  0.05189166     0.11400
N318        N  0.87460677  0.90666084  0.09467428    -0.32400
N319        N  0.88749302  0.89417304  0.09491514    -0.24600
C320        C  0.87997356  0.87805097  0.10304475     0.00200
C321        C  0.86157520  0.88046858  0.10817065     0.08800
C322        C  0.85866575  0.89874016  0.10261040     0.06900
H323        H  0.88737254  0.86547394  0.10506566     0.12000
H324        H  0.84587614  0.90579456  0.10425362     0.10800
N325        N  0.94189677  0.91100849  0.44520950    -0.23600
N326        N  0.94518463  0.92834689  0.45201624    -0.31500
C327        C  0.96312714  0.93093339  0.45596526     0.04700
C328        C  0.97169920  0.91448883  0.45149172     0.10800
C329        C  0.95787577  0.90208090  0.44466088    -0.02300
H330        H  0.96949233  0.94394783  0.46088386     0.11400
H331        H  0.95934507  0.88774809  0.43892815     0.12600
Cu332      Cu  0.92531635  0.94811177  0.45325601     0.44200
Cu333      Cu  0.91536427  0.90130227  0.43559459     0.42000
Cu334      Cu  0.87883652  0.93606838  0.43543375     0.43900
N335        N  0.90464542  0.96699529  0.45064179    -0.31000
N336        N  0.88747079  0.96293170  0.44379892    -0.25200
C337        C  0.87790723  0.97849476  0.44192033    -0.01300
C338        C  0.88974228  0.99285339  0.44795353     0.10900
C339        C  0.90649445  0.98505192  0.45333607     0.04700
H340        H  0.86356581  0.97930370  0.43564954     0.12300
H341        H  0.91923704  0.99201022  0.45780357     0.11400
N342        N  0.87459882  0.90815271  0.42717646    -0.32400
N343        N  0.88757998  0.89575659  0.42710717    -0.24600
C344        C  0.87999074  0.87935320  0.42067408     0.00200
C345        C  0.86145773  0.88148731  0.41650380     0.08800
C346        C  0.85852949  0.89988433  0.42081755     0.06900
H347        H  0.88744167  0.86678270  0.41906435     0.12000
H348        H  0.84564676  0.90679267  0.41931651     0.10800
N349        N  0.05573971  0.90937384  0.06492607    -0.23600
N350        N  0.05193470  0.92622285  0.05556760    -0.31500
C351        C  0.03393851  0.92803127  0.05100996     0.04700
C352        C  0.02588348  0.91158786  0.05774624     0.10800
C353        C  0.04005946  0.89999149  0.06657419    -0.02300
H354        H  0.02716403  0.94059463  0.04445905     0.11400
H355        H  0.03901770  0.88597809  0.07466871     0.12600
Cu356      Cu  0.07104055  0.94669099  0.05299731     0.44200
Cu357      Cu  0.08242765  0.90108699  0.07706496     0.42000
Cu358      Cu  0.11719136  0.93766867  0.07905004     0.43900
N359        N  0.09063478  0.96673236  0.05686419    -0.31000
N360        N  0.10766398  0.96378649  0.06698803    -0.25200
C361        C  0.11645440  0.97983343  0.06850126    -0.01300
C362        C  0.10428245  0.99334479  0.05877083     0.10900
C363        C  0.08811893  0.98453929  0.05164686     0.04700
H364        H  0.13051982  0.98155714  0.07663694     0.12300
H365        H  0.07532230  0.99066649  0.04395920     0.11400
N366        N  0.12256128  0.91018907  0.08902212    -0.32400
N367        N  0.11020882  0.89715930  0.08827300    -0.24600
C368        C  0.11844682  0.88127036  0.09568032     0.00200
C369        C  0.13675309  0.88440208  0.10137563     0.08800
C370        C  0.13888047  0.90284024  0.09691331     0.06900
H371        H  0.11160087  0.86836019  0.09670801     0.12000
H372        H  0.15140086  0.91038151  0.09908987     0.10800
N373        N  0.05667768  0.91146086  0.44328530    -0.23600
N374        N  0.05332791  0.92888176  0.44855936    -0.31500
C375        C  0.03543305  0.93137783  0.45257384     0.04700
C376        C  0.02695911  0.91478436  0.44980674     0.10800
C377        C  0.04078808  0.90238089  0.44388872    -0.02300
H378        H  0.02902782  0.94440749  0.45657233     0.11400
H379        H  0.03937267  0.88792959  0.43962017     0.12600
Cu380      Cu  0.07300256  0.94883563  0.44815230     0.44200
Cu381      Cu  0.08311687  0.90186908  0.43378399     0.42000
Cu382      Cu  0.11894848  0.93744435  0.42841671     0.43900
N383        N  0.09327304  0.96804153  0.44448262    -0.31000
N384        N  0.11031808  0.96421743  0.43681792    -0.25200
C385        C  0.11967346  0.97989613  0.43497758    -0.01300
C386        C  0.10781671  0.99407684  0.44193763     0.10900
C387        C  0.09128877  0.98605292  0.44779671     0.04700
H388        H  0.13389596  0.98089645  0.42849712     0.12300
H389        H  0.07861515  0.99282957  0.45338459     0.11400
N390        N  0.12331726  0.90957245  0.42105984    -0.32400
N391        N  0.11068707  0.89687449  0.42303864    -0.24600
C392        C  0.11841621  0.88061621  0.41617702     0.00200
C393        C  0.13664995  0.88320926  0.40955308     0.08800
C394        C  0.13926964  0.90167087  0.41291426     0.06900
H395        H  0.11123803  0.86786392  0.41564896     0.12000
H396        H  0.15184341  0.90889178  0.40933781     0.10800
N397        N  0.05234592  0.13098357  0.05901073    -0.23600
N398        N  0.04882832  0.11369758  0.05208457    -0.31500
C399        C  0.03083336  0.11127002  0.04954972     0.04700
C400        C  0.02251612  0.12775713  0.05507910     0.10800
C401        C  0.03649101  0.14003796  0.06105086    -0.02300
H402        H  0.02427619  0.09831952  0.04506017     0.11400
H403        H  0.03523259  0.15433568  0.06741425     0.12600
Cu404      Cu  0.06835045  0.09363939  0.04949757     0.44200
Cu405      Cu  0.07887485  0.14050419  0.06769225     0.42000
Cu406      Cu  0.11459821  0.10513152  0.07008187     0.43900
N407        N  0.08872474  0.07446003  0.05264145    -0.31000
N408        N  0.10583185  0.07834160  0.06066592    -0.25200
C409        C  0.11522963  0.06268247  0.06272199    -0.01300
C410        C  0.10336689  0.04844041  0.05559400     0.10900
C411        C  0.08675321  0.05642326  0.04937363     0.04700
H412        H  0.12948532  0.06172342  0.06974308     0.12300
H413        H  0.07402194  0.04960033  0.04384506     0.11400
N414        N  0.11927549  0.13300646  0.07838417    -0.32400
N415        N  0.10653605  0.14563307  0.07735002    -0.24600
C416        C  0.11430116  0.16194434  0.08373892     0.00200
C417        C  0.13271819  0.15951427  0.08907810     0.08800
C418        C  0.13539535  0.14104468  0.08548199     0.06900
H419        H  0.10704993  0.17464866  0.08443980     0.12000
H420        H  0.14814780  0.13394617  0.08778470     0.10800
N421        N  0.10905319  0.07860228  0.43192642    -0.23600
N422        N  0.09251752  0.07500105  0.44354788    -0.31500
C423        C  0.09100688  0.05713886  0.44946000     0.04700
C424        C  0.10732059  0.04903051  0.44124670     0.10800
C425        C  0.11850960  0.06297535  0.43012591    -0.02300
H426        H  0.07872686  0.05046730  0.45800359     0.11400
H427        H  0.13229815  0.06180403  0.42052013     0.12600
Cu428      Cu  0.07203020  0.09412640  0.44755019     0.44200
Cu429      Cu  0.11712791  0.10480301  0.41751131     0.42000
Cu430      Cu  0.08133925  0.13974209  0.41907792     0.43900
N431        N  0.05220807  0.11394911  0.44371895    -0.31000
N432        N  0.05530745  0.13067936  0.43268648    -0.25200
C433        C  0.03933255  0.13951629  0.43026945    -0.01300
C434        C  0.02568306  0.12772464  0.44035284     0.10900
C435        C  0.03433957  0.11170208  0.44864847     0.04700
H436        H  0.03772611  0.15326641  0.42071286     0.12300
H437        H  0.02804604  0.09909341  0.45635030     0.11400
N438        N  0.10856580  0.14476249  0.40631189    -0.32400
N439        N  0.12137140  0.13220910  0.40559714    -0.24600
C440        C  0.13721985  0.14006675  0.39678317     0.00200
C441        C  0.13429342  0.15836353  0.39170659     0.08800
C442        C  0.11601703  0.16087161  0.39798933     0.06900
H443        H  0.14997793  0.13299112  0.39461177     0.12000
H444        H  0.10868125  0.17351491  0.39690941     0.10800
N445        N  0.21766584  0.24442258  0.09831913     0.02100
C446        C  0.21698015  0.24428062  0.13636717    -0.08700
C447        C  0.20428976  0.23175768  0.14801500    -0.04200
C448        C  0.19687274  0.22389880  0.11506796    -0.04900
C449        C  0.20555255  0.23211195  0.08494611    -0.08800
N450        N  0.21731761  0.24368566  0.34663602     0.02100
C451        C  0.21774696  0.24356795  0.38476316    -0.08700
C452        C  0.20553549  0.23101188  0.39785670    -0.04200
C453        C  0.19722018  0.22303983  0.36614028    -0.04900
C454        C  0.20489601  0.23128494  0.33473547    -0.08800
N455        N  0.27399283  0.30100704  0.01619528     0.02100
C456        C  0.27387028  0.30063003  0.97806181    -0.08700
C457        C  0.28604656  0.31310170  0.46468897    -0.04200
C458        C  0.29407556  0.32154956  0.99613244    -0.04900
C459        C  0.28622507  0.31367966  0.02784484    -0.08800
N460        N  0.27318896  0.30037135  0.26317683     0.02100
C461        C  0.27380781  0.30123149  0.22517379    -0.08700
C462        C  0.28667671  0.31379616  0.21442585    -0.04200
C463        C  0.29426713  0.32086212  0.24802646    -0.04900
C464        C  0.28550475  0.31222582  0.27740372    -0.08800
C465        C  0.28872214  0.31526491  0.31740781    -0.14800
C466        C  0.29027573  0.31686864  0.35133412     0.09300
C467        C  0.29061803  0.31736764  0.39133286     0.11100
C468        C  0.28943833  0.31633027  0.42525675    -0.15700
C469        C  0.29082251  0.31814286  0.17561461    -0.14800
C470        C  0.29220083  0.31976061  0.14168559     0.09300
C471        C  0.29187803  0.31960461  0.10142437     0.11100
C472        C  0.29015099  0.31784116  0.06739862    -0.15700
C473        C  0.26242207  0.28864809  0.45543596    -0.14800
C474        C  0.25219748  0.27808712  0.43988063     0.09300
C475        C  0.23988315  0.26556919  0.42314611     0.11100
C476        C  0.22949745  0.25517148  0.40757039    -0.15700
C477        C  0.22826595  0.25497846  0.32467354    -0.14800
C478        C  0.23855607  0.26545916  0.31021689     0.09300
C479        C  0.25113204  0.27816488  0.29642859     0.11100
C480        C  0.26165249  0.28876787  0.28308618    -0.15700
C481        C  0.26242346  0.29008508  0.20075854    -0.14800
C482        C  0.25176944  0.27949796  0.18674873     0.09300
C483        C  0.23893171  0.26662554  0.17354058     0.11100
C484        C  0.22830500  0.25587773  0.15998889    -0.15700
C485        C  0.20022236  0.22789092  0.18704298    -0.14800
C486        C  0.19873175  0.22633616  0.22092318     0.09300
C487        C  0.19893938  0.22623945  0.26111148     0.11100
C488        C  0.20071650  0.22762657  0.29514979    -0.15700
C489        C  0.20247793  0.22835905  0.04511890    -0.14800
C490        C  0.20115784  0.22655692  0.01116852     0.09300
C491        C  0.20105179  0.22614140  0.47112633     0.11100
C492        C  0.20228398  0.22739715  0.43722355    -0.15700
C493        C  0.26297712  0.28977748  0.03816074    -0.14800
C494        C  0.25257535  0.27918789  0.05196022     0.09300
C495        C  0.23986155  0.26634622  0.06473489     0.11100
C496        C  0.22923014  0.25576008  0.07780017    -0.15700
C497        C  0.14764288  0.17207653  0.38305210    -0.14800
C498        C  0.15885191  0.18361064  0.37656781     0.09300
C499        C  0.17208658  0.19726135  0.37023917     0.11100
C500        C  0.18345196  0.20896827  0.36671163    -0.15700
C501        C  0.18292703  0.21001336  0.11220281    -0.14800
C502        C  0.17132894  0.19846991  0.10814958     0.09300
C503        C  0.15778454  0.18491783  0.10216062     0.11100
C504        C  0.14633165  0.17336393  0.09642846    -0.15700
C505        C  0.11104183  0.01337428  0.44121759    -0.09600
C506        C  0.11081067  0.02976431  0.44103848    -0.11100
C507        C  0.10698413  0.01275469  0.05814559    -0.09600
C508        C  0.10671355  0.02914803  0.05713356    -0.11100
C509        C  0.99113662  0.91170985  0.45117304    -0.09600
C510        C  0.00756203  0.91179602  0.45066891    -0.11100
C511        C  0.99013738  0.90824575  0.05998663    -0.09600
C512        C  0.00654641  0.90834558  0.05895362    -0.14300
C513        C  0.88631518  0.01208563  0.44567959    -0.09600
C514        C  0.88631440  0.02843820  0.44366822    -0.11100
C515        C  0.00627334  0.13041796  0.43868584    -0.09600
C516        C  0.98986722  0.13030095  0.43745739    -0.11100
C517        C  0.88571925  0.02601906  0.06470042    -0.09600
C518        C  0.88597680  0.00962865  0.06476139    -0.11100
C519        C  0.00319590  0.13061190  0.05725234    -0.09600
C520        C  0.98684006  0.13025003  0.05890787    -0.11100
C521        C  0.60978143  0.52741371  0.32155838    -0.09600
C522        C  0.60996183  0.51102442  0.32159102    -0.11100
C523        C  0.60948301  0.52581807  0.42781354    -0.09600
C524        C  0.60924363  0.50943558  0.42733798    -0.11100
C525        C  0.48937068  0.62988642  0.32066643    -0.09600
C526        C  0.50578639  0.62978458  0.32053057    -0.11100
C527        C  0.49070865  0.62963425  0.42670343    -0.09600
C528        C  0.50710764  0.62926591  0.42620774    -0.11100
C529        C  0.30866503  0.33414366  0.25270322    -0.14800
C530        C  0.32062690  0.34490288  0.26031747     0.09300
C531        C  0.33450781  0.35735094  0.27148358     0.11100
C532        C  0.34612291  0.36806885  0.28154407    -0.15700
C533        C  0.48946321  0.40949023  0.32254509    -0.09600
C534        C  0.50585809  0.40952403  0.32251677    -0.11100
C535        C  0.38559997  0.51138688  0.31903047    -0.09600
C536        C  0.38559750  0.52776960  0.31844943    -0.11100
C537        C  0.34437121  0.37052055  0.96983958    -0.14800
C538        C  0.33298909  0.35964071  0.97909186     0.09300
C539        C  0.31952917  0.34673298  0.98883082     0.11100
C540        C  0.30797703  0.33545404  0.99463030    -0.15700
C541        C  0.48753003  0.40929029  0.92346974    -0.09600
C542        C  0.50394509  0.40908120  0.92387676    -0.11100
C543        C  0.38541646  0.51266759  0.92597449    -0.09600
C544        C  0.38573296  0.52904795  0.92723409    -0.11100
C545        C  0.68512658  0.33255624  0.25527672    -0.14800
C546        C  0.67321973  0.34358947  0.25998389     0.09300
C547        C  0.65939683  0.35646693  0.26754904     0.11100
C548        C  0.64786550  0.36755519  0.27504484    -0.15700
C549        C  0.64656295  0.36672880  0.47705676    -0.14800
C550        C  0.65824452  0.35575127  0.48467038     0.09300
C551        C  0.67224187  0.34300219  0.49261114     0.11100
C552        C  0.68427020  0.33207877  0.99779573    -0.15700
C553        C  0.70441498  0.31364007  0.43085102    -0.14800
C554        C  0.70322059  0.31509925  0.39690157     0.09300
C555        C  0.70333487  0.31528200  0.35685992     0.11100
C556        C  0.70472547  0.31405729  0.32289861    -0.15700
C557        C  0.70209875  0.31558361  0.07281980    -0.14800
C558        C  0.70061314  0.31726415  0.10677353     0.09300
C559        C  0.70084941  0.31725956  0.14696529     0.11100
C560        C  0.70264607  0.31562398  0.18086043    -0.15700
C561        C  0.84663379  0.17078252  0.38984011    -0.14800
C562        C  0.83526196  0.18244492  0.38561475     0.09300
C563        C  0.82197331  0.19626780  0.38162059     0.11100
C564        C  0.81065663  0.20809397  0.37918334    -0.15700
C565        C  0.76523533  0.25421727  0.41792419    -0.14800
C566        C  0.75475249  0.26448291  0.43299339     0.09300
C567        C  0.74206297  0.27684756  0.44822047     0.11100
C568        C  0.73146842  0.28714432  0.46284634    -0.15700
C569        C  0.73172451  0.28740364  0.29146080    -0.14800
C570        C  0.74220175  0.27700644  0.30606976     0.09300
C571        C  0.75483097  0.26447728  0.32079049     0.11100
C572        C  0.76535951  0.25404420  0.33511289    -0.15700
C573        C  0.81001284  0.20753018  0.12467231    -0.14800
C574        C  0.82104838  0.19544524  0.12208366     0.09300
C575        C  0.83391089  0.18123034  0.11794141     0.11100
C576        C  0.84495988  0.16927445  0.11352049    -0.15700
C577        C  0.76472227  0.25330752  0.16948315    -0.14800
C578        C  0.75404574  0.26388989  0.18275572     0.09300
C579        C  0.74130951  0.27676480  0.19555650     0.11100
C580        C  0.73083745  0.28753354  0.20889931    -0.15700
C581        C  0.79317117  0.22593111  0.30613338    -0.14800
C582        C  0.79466421  0.22423210  0.27220685     0.09300
C583        C  0.79456552  0.22404054  0.23204967     0.11100
C584        C  0.79289379  0.22547651  0.19810860    -0.15700
C585        C  0.79179988  0.22709163  0.05610089    -0.14800
C586        C  0.79340146  0.22580175  0.02218454     0.09300
C587        C  0.79359710  0.22583635  0.48212481     0.11100
C588        C  0.79226295  0.22722777  0.44817079    -0.15700
C589        C  0.76451264  0.25386113  0.08710952    -0.14800
C590        C  0.75390139  0.26435682  0.07312850     0.09300
C591        C  0.74112107  0.27704804  0.05939885     0.11100
C592        C  0.73054853  0.28759381  0.04547346    -0.15700
C593        C  0.68581977  0.70586055  0.25890173    -0.14800
C594        C  0.67412469  0.69450411  0.26283719     0.09300
C595        C  0.66048144  0.68128347  0.26952672     0.11100
C596        C  0.64895865  0.67008080  0.27623194    -0.15700
C597        C  0.64999197  0.66895845  0.47939364    -0.14800
C598        C  0.66118467  0.68048099  0.48747762     0.09300
C599        C  0.67433051  0.69413896  0.49614053     0.11100
C600        C  0.68560253  0.70585986  0.50197957    -0.15700
C601        C  0.70426207  0.72562966  0.43602219    -0.14800
C602        C  0.70283751  0.72419399  0.40201537     0.09300
C603        C  0.70287941  0.72395006  0.36196649     0.11100
C604        C  0.70445455  0.72506109  0.32810437    -0.15700
C605        C  0.70316235  0.72292352  0.07788553    -0.14800
C606        C  0.70189947  0.72123120  0.11178493     0.09300
C607        C  0.70226996  0.72126493  0.15198657     0.11100
C608        C  0.70402305  0.72290715  0.18599514    -0.15700
C609        C  0.81187154  0.83043893  0.39154231    -0.14800
C610        C  0.82331079  0.84212257  0.39610805     0.09300
C611        C  0.83666750  0.85582523  0.40281055     0.11100
C612        C  0.84798636  0.86748568  0.40897421    -0.15700
C613        C  0.76559094  0.78490351  0.42666217    -0.14800
C614        C  0.75488475  0.77478942  0.44095375     0.09300
C615        C  0.74200196  0.76254905  0.45530746     0.11100
C616        C  0.73136000  0.75227871  0.46932073    -0.15700
C617        C  0.76610977  0.78472680  0.34397605    -0.14800
C618        C  0.75540784  0.77431452  0.32940754     0.09300
C619        C  0.74258684  0.76180951  0.31437597     0.11100
C620        C  0.73205443  0.75141307  0.29920445    -0.15700
C621        C  0.84817442  0.86681693  0.11731715    -0.14800
C622        C  0.83684127  0.85548131  0.12458315     0.09300
C623        C  0.82338131  0.84213600  0.13206038     0.11100
C624        C  0.81180288  0.83067724  0.13644080    -0.15700
C625        C  0.73248835  0.75077611  0.21676790    -0.14800
C626        C  0.74332232  0.76138704  0.20451677     0.09300
C627        C  0.75617711  0.77424830  0.19240596     0.11100
C628        C  0.76661144  0.78489936  0.17890147    -0.15700
C629        C  0.79436142  0.81250011  0.31667768    -0.14800
C630        C  0.79583405  0.81399641  0.28277085     0.09300
C631        C  0.79572555  0.81397031  0.24256250     0.11100
C632        C  0.79409216  0.81245800  0.20850513    -0.15700
C633        C  0.79272457  0.81185014  0.45861750    -0.14800
C634        C  0.79406982  0.81350218  0.49257856     0.09300
C635        C  0.79407808  0.81370267  0.03259413     0.11100
C636        C  0.79272871  0.81232031  0.06643281    -0.15700
C637        C  0.73108550  0.75128438  0.05205028    -0.14800
C638        C  0.74173257  0.76161773  0.06708905     0.09300
C639        C  0.75455593  0.77413942  0.08213718     0.11100
C640        C  0.76526965  0.78463184  0.09645109    -0.15700
C641        C  0.34645193  0.67074707  0.27041541    -0.14800
C642        C  0.33523366  0.68239739  0.26433799     0.09300
C643        C  0.32216136  0.69629638  0.25827663     0.11100
C644        C  0.31105646  0.70826664  0.25449012    -0.15700
C645        C  0.34861423  0.67249970  0.47936725    -0.14800
C646        C  0.33728055  0.68392906  0.48636574     0.09300
C647        C  0.32392676  0.69743425  0.49367204     0.11100
C648        C  0.31255886  0.70909137  0.99835606    -0.15700
C649        C  0.29331131  0.72793449  0.43062218    -0.14800
C650        C  0.29423553  0.72627257  0.39663947     0.09300
C651        C  0.29386824  0.72613699  0.35657091     0.11100
C652        C  0.29240980  0.72757104  0.32264813    -0.15700
C653        C  0.29571073  0.72722859  0.07268499    -0.14800
C654        C  0.29702316  0.72555638  0.10664481     0.09300
C655        C  0.29663571  0.72544608  0.14679671     0.11100
C656        C  0.29476692  0.72691635  0.18068550    -0.15700
C657        C  0.18731969  0.83451974  0.37920380    -0.14800
C658        C  0.17548460  0.84565434  0.38421143     0.09300
C659        C  0.16169928  0.85857655  0.39238904     0.11100
C660        C  0.15013377  0.86964478  0.40013469    -0.15700
C661        C  0.23413276  0.78907966  0.41664882    -0.14800
C662        C  0.24467790  0.77866052  0.43099672     0.09300
C663        C  0.25718399  0.76618324  0.44640580     0.11100
C664        C  0.26750874  0.75581614  0.46159765    -0.15700
C665        C  0.23275339  0.78926552  0.33403366    -0.14800
C666        C  0.24308704  0.77871345  0.31937714     0.09300
C667        C  0.25570356  0.76591939  0.30547576     0.11100
C668        C  0.26620159  0.75530440  0.29154562    -0.15700
C669        C  0.15075937  0.87115675  0.10954897    -0.14800
C670        C  0.16249678  0.86003553  0.11581721     0.09300
C671        C  0.17631748  0.84687447  0.12208200     0.11100
C672        C  0.18812468  0.83557063  0.12575651    -0.15700
C673        C  0.23376892  0.79023628  0.16952320    -0.14800
C674        C  0.24412981  0.77953549  0.18355951     0.09300
C675        C  0.25673892  0.76649112  0.19636912     0.11100
C676        C  0.26717446  0.75555899  0.20933742    -0.15700
C677        C  0.20524243  0.81664815  0.30614066    -0.14800
C678        C  0.20380696  0.81825029  0.27216373     0.09300
C679        C  0.20408509  0.81844999  0.23197765     0.11100
C680        C  0.20592387  0.81719049  0.19803139    -0.15700
C681        C  0.20681398  0.81685142  0.44821169    -0.14800
C682        C  0.20560514  0.81862225  0.48209944     0.09300
C683        C  0.20575905  0.81897608  0.02212289     0.11100
C684        C  0.20724940  0.81770380  0.05604579    -0.15700
C685        C  0.23505575  0.79021175  0.08713034    -0.14800
C686        C  0.24563339  0.77962735  0.07328642     0.09300
C687        C  0.25816211  0.76683069  0.05888146     0.11100
C688        C  0.26844027  0.75610525  0.04452247    -0.15700
N689        N  0.22280066  0.80162438  0.64725898     0.02100
C690        C  0.22321402  0.80180282  0.60917377    -0.08700
C691        C  0.21076090  0.81417597  0.59552786    -0.04200
C692        C  0.20233091  0.82193308  0.62688306    -0.04900
C693        C  0.21018506  0.81376605  0.65863075    -0.08800
N694        N  0.22179346  0.80054058  0.85662443     0.02100
C695        C  0.22226449  0.80063287  0.89474311    -0.08700
C696        C  0.20995332  0.81305462  0.90866442    -0.04200
C697        C  0.20151019  0.82091797  0.87748942    -0.04900
C698        C  0.20925953  0.81281947  0.84550978    -0.08800
N699        N  0.27882026  0.74443705  0.98314408     0.02100
C700        C  0.27950254  0.74429454  0.52126210    -0.08700
C701        C  0.29183240  0.73135754  0.53347930    -0.04200
C702        C  0.29898051  0.72330480  0.50085827    -0.04900
C703        C  0.29052018  0.73178385  0.97036510    -0.08800
N704        N  0.27756386  0.74382325  0.77029691     0.02100
C705        C  0.27824514  0.74368202  0.73223966    -0.08700
C706        C  0.29056930  0.73077600  0.71987572    -0.04200
C707        C  0.29769044  0.72268198  0.75237543    -0.04900
C708        C  0.28928495  0.73117746  0.78297386    -0.08800
N709        N  0.77758285  0.79624898  0.65708120     0.02100
C710        C  0.77715629  0.79627200  0.61896409    -0.08700
C711        C  0.78943242  0.80875744  0.60577770    -0.04200
C712        C  0.79779754  0.81678608  0.63739799    -0.04900
C713        C  0.79003621  0.80865258  0.66891209    -0.08800
N714        N  0.77725087  0.79592551  0.90566822     0.02100
C715        C  0.77772452  0.79610802  0.86758187    -0.08700
C716        C  0.79043084  0.80861542  0.85577304    -0.04200
C717        C  0.79803933  0.81641193  0.88864005    -0.04900
C718        C  0.78948329  0.80816070  0.91883415    -0.08800
N719        N  0.71981120  0.74091845  0.98977953     0.02100
C720        C  0.71949759  0.74014156  0.52783846    -0.08700
C721        C  0.70694301  0.72734183  0.53899254    -0.04200
C722        C  0.69926865  0.71999527  0.00573976    -0.04900
C723        C  0.70761509  0.72879549  0.97598857    -0.08800
N724        N  0.72071102  0.74006296  0.77690821     0.02100
C725        C  0.72067119  0.73946821  0.73879297    -0.08700
C726        C  0.70795675  0.72693282  0.72550142    -0.04200
C727        C  0.69993740  0.71958450  0.75750181    -0.04900
C728        C  0.70823122  0.72811247  0.78867479    -0.08800
N729        N  0.77597760  0.24249363  0.60840210     0.02100
C730        C  0.77628645  0.24200204  0.64648323    -0.08700
C731        C  0.78886582  0.22940748  0.65888319    -0.04200
C732        C  0.79653635  0.22181366  0.62644062    -0.04900
C733        C  0.78822675  0.23033046  0.59576021    -0.08800
N734        N  0.77661963  0.24298204  0.89616655     0.02100
C735        C  0.77687871  0.24263280  0.85805126    -0.08700
C736        C  0.78936155  0.22997346  0.84541730    -0.04200
C737        C  0.79703809  0.22224733  0.87770393    -0.04900
C738        C  0.78879705  0.23069706  0.90854730    -0.08800
N739        N  0.71982471  0.29842627  0.98388020     0.02100
C740        C  0.71916429  0.29892702  0.52195467    -0.08700
C741        C  0.70625886  0.31139446  0.53374060    -0.04200
C742        C  0.69868366  0.31874037  0.50084620    -0.04900
C743        C  0.70751189  0.31036839  0.97066984    -0.08800
N744        N  0.72026868  0.29875375  0.77019941     0.02100
C745        C  0.71964878  0.29911742  0.73211076    -0.08700
C746        C  0.70690012  0.31163333  0.71999747    -0.04200
C747        C  0.69939205  0.31914644  0.75271780    -0.04900
C748        C  0.70805191  0.31083127  0.78313922    -0.08800
N749        N  0.38562491  0.46358503  0.42901448    -0.23600
N750        N  0.40280668  0.46715506  0.42233851    -0.31500
C751        C  0.40500811  0.48511864  0.41940364     0.04700
C752        C  0.38847344  0.49335064  0.42445304     0.10800
C753        C  0.37640462  0.47936247  0.43054684    -0.02300
H754        H  0.41783150  0.49172997  0.41482964     0.11400
H755        H  0.36213687  0.48057148  0.43649955     0.12600
Cu756      Cu  0.42293570  0.44769418  0.42015706     0.44200
Cu757      Cu  0.37652430  0.43709201  0.43737678     0.42000
Cu758      Cu  0.41161487  0.40100694  0.43401901     0.43900
N759        N  0.44214433  0.42730238  0.42165781    -0.31000
N760        N  0.43833397  0.41002057  0.42657802    -0.25200
C761        C  0.45402921  0.40061449  0.42741211    -0.01300
C762        C  0.46821184  0.41266564  0.42285958     0.10900
C763        C  0.46015990  0.42938408  0.41934271     0.04700
H764        H  0.45505433  0.38619344  0.43171610     0.12300
H765        H  0.46691939  0.44221892  0.41588406     0.11400
N766        N  0.38396148  0.39657370  0.44416951    -0.32400
N767        N  0.37152612  0.40949347  0.44557919    -0.24600
C768        C  0.35548485  0.40203899  0.45433583     0.00200
C769        C  0.35786507  0.38363300  0.45868600     0.08800
C770        C  0.37603686  0.38062024  0.45197722     0.06900
H771        H  0.34305659  0.40954772  0.45795899     0.12000
H772        H  0.38307827  0.36782104  0.45344283     0.10800
N773        N  0.44026681  0.40944615  0.82045764    -0.23600
N774        N  0.44393324  0.42696215  0.82079796    -0.31500
C775        C  0.46194925  0.42937851  0.82188865     0.04700
C776        C  0.47014236  0.41264839  0.82232625     0.10800
C777        C  0.45606377  0.40022642  0.82144188    -0.02300
H778        H  0.46859445  0.44241602  0.82213984     0.11400
H779        H  0.45720742  0.38563981  0.82102933     0.12600
Cu780      Cu  0.42455967  0.44716170  0.81930655     0.44200
Cu781      Cu  0.41357366  0.39969190  0.81654210     0.42000
Cu782      Cu  0.37791582  0.43532931  0.81315523     0.43900
N783        N  0.40412707  0.46629860  0.81921168    -0.31000
N784        N  0.38672013  0.46224034  0.81733881    -0.25200
C785        C  0.37710031  0.47779338  0.81746077    -0.01300
C786        C  0.38917533  0.49215275  0.81947408     0.10900
C787        C  0.40610702  0.48436075  0.82052431     0.04700
H788        H  0.36250078  0.47857757  0.81569164     0.12300
H789        H  0.41898060  0.49131410  0.82183480     0.11400
N790        N  0.37320165  0.40750446  0.80619878    -0.32400
N791        N  0.38579812  0.39474092  0.80755806    -0.24600
C792        C  0.37793086  0.37858859  0.79983999     0.00200
C793        C  0.35963121  0.38133364  0.79327186     0.08800
C794        C  0.35712370  0.39976069  0.79757338     0.06900
H795        H  0.38510452  0.36586110  0.79805235     0.12000
H796        H  0.34459403  0.40710238  0.79370015     0.10800
N797        N  0.38761265  0.57801900  0.93643868    -0.23600
N798        N  0.40463592  0.57400204  0.92896852    -0.31500
C799        C  0.40625891  0.55601992  0.92405608     0.04700
C800        C  0.38949104  0.54824897  0.42855062     0.10800
C801        C  0.37790264  0.56252374  0.43643684    -0.02300
H802        H  0.41881726  0.54908871  0.91815968     0.11400
H803        H  0.36360313  0.56169883  0.44228631     0.12600
Cu804      Cu  0.42521222  0.59296136  0.92715202     0.44200
Cu805      Cu  0.37934710  0.60471953  0.94726494     0.42000
Cu806      Cu  0.41552468  0.63977371  0.94719834     0.43900
N807        N  0.44489315  0.61290087  0.92808646    -0.31000
N808        N  0.44173422  0.63017971  0.93566582    -0.25200
C809        C  0.45767590  0.63916964  0.93554834    -0.01300
C810        C  0.47131663  0.62685636  0.92745323     0.10900
C811        C  0.46270751  0.61041811  0.92296181     0.04700
H812        H  0.45925699  0.65346501  0.94168018     0.12300
H813        H  0.46898077  0.59746892  0.91719312     0.11400
N814        N  0.38799387  0.64495913  0.95763312    -0.32400
N815        N  0.37514593  0.63242699  0.95757064    -0.24600
C816        C  0.35918249  0.64041808  0.96532405     0.00200
C817        C  0.36204604  0.65877353  0.97055465     0.08800
C818        C  0.38042337  0.66119079  0.96545468     0.06900
H819        H  0.34641520  0.63335048  0.96706233     0.12000
H820        H  0.38777430  0.67382991  0.96730973     0.10800
N821        N  0.38682421  0.57667315  0.80986515    -0.23600
N822        N  0.40390297  0.57297737  0.81832657    -0.31500
C823        C  0.40574332  0.55507727  0.82328763     0.04700
C824        C  0.38907652  0.54702201  0.81777434     0.10800
C825        C  0.37731600  0.56104529  0.80922306    -0.02300
H826        H  0.41839487  0.54837863  0.82980497     0.11400
H827        H  0.36303505  0.55995342  0.80245971     0.12600
Cu828      Cu  0.42433825  0.59218455  0.82115754     0.44200
Cu829      Cu  0.37810854  0.60313252  0.79884987     0.42000
Cu830      Cu  0.41364852  0.63875166  0.80384454     0.43900
N831        N  0.44377521  0.61240660  0.82070661    -0.31000
N832        N  0.44018845  0.62963172  0.81431950    -0.25200
C833        C  0.45598274  0.63887499  0.81417780    -0.01300
C834        C  0.47000554  0.62678511  0.82079514     0.10900
C835        C  0.46175030  0.61020904  0.82474428     0.04700
H836        H  0.45719256  0.65318008  0.80871223     0.12300
H837        H  0.46836129  0.59735820  0.82933339     0.11400
N838        N  0.38608046  0.64351647  0.79207653    -0.32400
N839        N  0.37343560  0.63079221  0.79001742    -0.24600
C840        C  0.35738235  0.63860860  0.78174337     0.00200
C841        C  0.36000551  0.65704543  0.77844338     0.08800
C842        C  0.37830804  0.65968195  0.78519384     0.06900
H843        H  0.34471294  0.63138803  0.77854267     0.12000
H844        H  0.38547161  0.67243866  0.78517527     0.10800
N845        N  0.55310735  0.40859494  0.93103053    -0.23600
N846        N  0.54983359  0.42580976  0.92387487    -0.31500
C847        C  0.53190198  0.42829857  0.91967846     0.04700
C848        C  0.52335265  0.41191466  0.42421631     0.10800
C849        C  0.53714897  0.39964657  0.43141666    -0.02300
H850        H  0.52553228  0.44120233  0.91434480     0.11400
H851        H  0.53567772  0.38541098  0.43732106     0.12600
Cu852      Cu  0.56964822  0.44561284  0.92228056     0.44200
Cu853      Cu  0.57948633  0.39904206  0.94194783     0.42000
Cu854      Cu  0.61579385  0.43386373  0.94276665     0.43900
N855        N  0.59038295  0.46447733  0.92492352    -0.31000
N856        N  0.60746834  0.46045901  0.93255586    -0.25200
C857        C  0.61718575  0.47594765  0.93384251    -0.01300
C858        C  0.60554219  0.49022752  0.92663579     0.10900
C859        C  0.58873392  0.48246638  0.92121373     0.04700
H860        H  0.63150517  0.47677428  0.94038996     0.12300
H861        H  0.57611250  0.48942137  0.91574330     0.11400
N862        N  0.61995047  0.40634178  0.95338555    -0.32400
N863        N  0.60706430  0.39385178  0.95320441    -0.24600
C864        C  0.61463257  0.37774724  0.96165729     0.00200
C865        C  0.63304812  0.38023140  0.96741155     0.08800
C866        C  0.63592587  0.39846992  0.96190875     0.06900
H867        H  0.60725454  0.36516621  0.96356006     0.12000
H868        H  0.64871342  0.40554972  0.96405461     0.10800
N869        N  0.55492293  0.40939383  0.81765159    -0.23600
N870        N  0.55148575  0.42682575  0.82239295    -0.31500
C871        C  0.53353686  0.42927467  0.82525188     0.04700
C872        C  0.52518728  0.41262644  0.82236861     0.10800
C873        C  0.53908755  0.40024734  0.81754529    -0.02300
H874        H  0.52703162  0.44228454  0.82875873     0.11400
H875        H  0.53777843  0.38577135  0.81353496     0.12600
Cu876      Cu  0.57117172  0.44678421  0.82331772     0.44200
Cu877      Cu  0.58129626  0.39980049  0.80939963     0.42000
Cu878      Cu  0.61740611  0.43514092  0.80768720     0.43900
N879        N  0.59167978  0.46584915  0.82204462    -0.31000
N880        N  0.60887916  0.46190179  0.81633299    -0.25200
C881        C  0.61843584  0.47749459  0.81591673    -0.01300
C882        C  0.60653990  0.49175691  0.82166971     0.10900
C883        C  0.58978262  0.48386875  0.82535293     0.04700
H884        H  0.63282374  0.47838685  0.81106425     0.12300
H885        H  0.57703694  0.49074541  0.82954820     0.11400
N886        N  0.62150050  0.40739711  0.79814034    -0.32400
N887        N  0.60872480  0.39480461  0.79880770    -0.24600
C888        C  0.61624828  0.37859795  0.79072367     0.00200
C889        C  0.63451014  0.38112424  0.78467247     0.08800
C890        C  0.63738071  0.39946891  0.78962574     0.06900
H891        H  0.60892062  0.36593903  0.78911580     0.12000
H892        H  0.65007628  0.40658632  0.78700577     0.10800
N893        N  0.60900846  0.57485723  0.93575913    -0.23600
N894        N  0.59186091  0.57125624  0.92747917    -0.31500
C895        C  0.58975594  0.55330920  0.92274335     0.04700
C896        C  0.60631115  0.54511909  0.92819016     0.10800
C897        C  0.61829270  0.55910800  0.93646678    -0.02300
H898        H  0.57699235  0.54668102  0.91647112     0.11400
H899        H  0.63256119  0.55791708  0.94319579     0.12600
Cu900      Cu  0.57158678  0.59056610  0.92482144     0.44200
Cu901      Cu  0.61814750  0.60133006  0.94689322     0.42000
Cu902      Cu  0.58289777  0.63705802  0.94266133     0.43900
N903        N  0.55237456  0.61097659  0.92566665    -0.31000
N904        N  0.55623864  0.62821271  0.93225034    -0.25200
C905        C  0.54060856  0.63770857  0.93259181    -0.01300
C906        C  0.52639243  0.62577856  0.92588615     0.10900
C907        C  0.53435913  0.60901472  0.92169879     0.04700
H908        H  0.53964091  0.65209263  0.93824083     0.12300
H909        H  0.52753237  0.59622068  0.91697357     0.11400
N910        N  0.61046415  0.64181157  0.95454987    -0.32400
N911        N  0.62304029  0.62904614  0.95637101    -0.24600
C912        C  0.63907937  0.63684503  0.96539146     0.00200
C913        C  0.63651357  0.65531504  0.96941973     0.08800
C914        C  0.61825789  0.65798158  0.96231195     0.06900
H915        H  0.65167407  0.62957523  0.96891853     0.12000
H916        H  0.61110977  0.67074325  0.96300764     0.10800
N917        N  0.55494645  0.62922805  0.81553499    -0.23600
N918        N  0.55127087  0.61195233  0.82099355    -0.31500
C919        C  0.53328602  0.60981563  0.82403640     0.04700
C920        C  0.52512120  0.62648097  0.82044175     0.10800
C921        C  0.53920154  0.63855740  0.81504876    -0.02300
H922        H  0.52661876  0.59697891  0.82810504     0.11400
H923        H  0.53807297  0.65295247  0.81049254     0.12600
Cu924      Cu  0.57061764  0.59162871  0.82261245     0.44200
Cu925      Cu  0.58154761  0.63846880  0.80737275     0.42000
Cu926      Cu  0.61706437  0.60298856  0.80646869     0.43900
N927        N  0.59116670  0.57251566  0.82156222    -0.31000
N928        N  0.60834571  0.57641195  0.81557962    -0.25200
C929        C  0.61795287  0.56085449  0.81533510    -0.01300
C930        C  0.60615532  0.54664873  0.82147840     0.10900
C931        C  0.58935837  0.55453370  0.82523562     0.04700
H932        H  0.63233009  0.55993570  0.81033669     0.12300
H933        H  0.57665486  0.54767068  0.82966995     0.11400
N934        N  0.62182543  0.63056502  0.79722496    -0.32400
N935        N  0.60918970  0.64330012  0.79770498    -0.24600
C936        C  0.61700642  0.65936297  0.79033339     0.00200
C937        C  0.63533001  0.65662348  0.78489974     0.08800
C938        C  0.63789761  0.63824839  0.78950978     0.06900
H939        H  0.60984568  0.67209503  0.78883666     0.12000
H940        H  0.65053119  0.63095512  0.78729206     0.10800
N941        N  0.88570118  0.07508389  0.57235494    -0.23600
N942        N  0.90257143  0.07175045  0.56235642    -0.31500
C943        C  0.90477491  0.05383746  0.55726084     0.04700
C944        C  0.88858002  0.04538168  0.56436423     0.10800
C945        C  0.87671377  0.05919064  0.57393167    -0.02300
H946        H  0.91741971  0.04740353  0.54993216     0.11400
H947        H  0.86276142  0.05777303  0.58224577     0.12600
Cu948      Cu  0.92251450  0.09133170  0.55879146     0.44200
Cu949      Cu  0.87658091  0.10139823  0.58476644     0.42000
Cu950      Cu  0.91189188  0.13712087  0.58377885     0.43900
N951        N  0.94172431  0.11175548  0.56069073    -0.31000
N952        N  0.93812580  0.12870555  0.57037794    -0.25200
C953        C  0.95371768  0.13825438  0.57060806    -0.01300
C954        C  0.96763007  0.12665398  0.56048785     0.10900
C955        C  0.95954328  0.11003256  0.55446231     0.04700
H956        H  0.95487218  0.15243832  0.57821936     0.12300
H957        H  0.96618277  0.09747433  0.54693185     0.11400
N958        N  0.88450657  0.14172172  0.59507400    -0.32400
N959        N  0.87182882  0.12903213  0.59538745    -0.24600
C960        C  0.85576031  0.13694005  0.60267783     0.00200
C961        C  0.85847173  0.15537731  0.60716476     0.08800
C962        C  0.87679346  0.15792255  0.60215384     0.06900
H963        H  0.84300989  0.12981552  0.60403039     0.12000
H964        H  0.88398080  0.17066947  0.60297704     0.10800
N965        N  0.94079853  0.12988244  0.92809097    -0.23600
N966        N  0.94423091  0.11296612  0.93751261    -0.31500
C967        C  0.96214624  0.11086212  0.94282488     0.04700
C968        C  0.97051557  0.12718056  0.93646385     0.10800
C969        C  0.95663377  0.13901851  0.92711480    -0.02300
H970        H  0.96863445  0.09824233  0.95009998     0.11400
H971        H  0.95795726  0.15308946  0.91963149     0.12600
Cu972      Cu  0.92464466  0.09301400  0.94077235     0.44200
Cu973      Cu  0.91433479  0.13875575  0.91632210     0.42000
Cu974      Cu  0.87846249  0.10328883  0.91746567     0.43900
N975        N  0.90431789  0.07369924  0.93981472    -0.31000
N976        N  0.88724499  0.07711376  0.93079158    -0.25200
C977        C  0.87784056  0.06143570  0.93140070    -0.01300
C978        C  0.88966647  0.04767856  0.94138349     0.10900
C979        C  0.90626000  0.05594386  0.94643812     0.04700
H980        H  0.86358982  0.06011740  0.92451984     0.12300
H981        H  0.91894408  0.04946688  0.95365060     0.11400
N982        N  0.87386449  0.13080128  0.90691620    -0.32400
N983        N  0.88661967  0.14342300  0.90661656    -0.24600
C984        C  0.87878108  0.15956659  0.89992655     0.00200
C985        C  0.86032248  0.15701885  0.89579940     0.08800
C986        C  0.85766641  0.13867030  0.90040404     0.06900
H987        H  0.88598784  0.17227218  0.89867293     0.12000
H988        H  0.84486703  0.13157300  0.89963630     0.10800
N989        N  0.94121909  0.90838499  0.57090245    -0.23600
N990        N  0.94439752  0.92536427  0.56172032    -0.31500
C991        C  0.96217853  0.92754777  0.55563759     0.04700
C992        C  0.97075311  0.91121934  0.56120223     0.10800
C993        C  0.95711168  0.89930143  0.57092280    -0.02300
H994        H  0.96846723  0.94024810  0.54855701     0.11400
H995        H  0.95866868  0.88522095  0.57820931     0.12600
Cu996      Cu  0.92474257  0.94533791  0.56029715     0.44200
Cu997      Cu  0.91501395  0.89930458  0.58402171     0.42000
Cu998      Cu  0.87887879  0.93421529  0.58379869     0.43900
N999        N  0.90425149  0.96440939  0.56325137    -0.31000
N1000       N  0.88734836  0.96067226  0.57216264    -0.25200
C1001       C  0.87786199  0.97630119  0.57330435    -0.01300
C1002       C  0.88944636  0.99036195  0.56462397     0.10900
C1003       C  0.90599134  0.98232666  0.55847298     0.04700
H1004       H  0.86374704  0.97738140  0.58069633     0.12300
H1005       H  0.91853107  0.98905795  0.55189023     0.11400
N1006       N  0.87460637  0.90666072  0.59467361    -0.32400
N1007       N  0.88749270  0.89417302  0.59491489    -0.24600
C1008       C  0.87997332  0.87805092  0.60304452     0.00200
C1009       C  0.86157493  0.88046843  0.60816999     0.08800
C1010       C  0.85866534  0.89873998  0.60260940     0.06900
H1011       H  0.88737237  0.86547400  0.60506573     0.12000
H1012       H  0.84587575  0.90579423  0.60425214     0.10800
N1013       N  0.94189712  0.91100860  0.94520884    -0.23600
N1014       N  0.94518466  0.92834697  0.95201659    -0.31500
C1015       C  0.96312713  0.93093381  0.95596572     0.04700
C1016       C  0.97169955  0.91448950  0.95149114     0.10800
C1017       C  0.95787634  0.90208135  0.94465956    -0.02300
H1018       H  0.96949201  0.94394830  0.96088497     0.11400
H1019       H  0.95934592  0.88774873  0.93892595     0.12600
Cu1020     Cu  0.92531614  0.94811155  0.95325714     0.44200
Cu1021     Cu  0.91536464  0.90130203  0.93559346     0.42000
Cu1022     Cu  0.87883683  0.93606813  0.93543148     0.43900
N1023       N  0.90464523  0.96699505  0.95064197    -0.31000
N1024       N  0.88747074  0.96293141  0.94379759    -0.25200
C1025       C  0.87790718  0.97849441  0.94191799    -0.01300
C1026       C  0.88974206  0.99285308  0.94795210     0.10900
C1027       C  0.90649419  0.98505171  0.95333615     0.04700
H1028       H  0.86356584  0.97930331  0.93564558     0.12300
H1029       H  0.91923658  0.99200998  0.95780424     0.11400
N1030       N  0.87459921  0.90815253  0.92717448    -0.32400
N1031       N  0.88758032  0.89575637  0.92710571    -0.24600
C1032       C  0.87999100  0.87935298  0.92067296     0.00200
C1033       C  0.86145801  0.88148719  0.91650234     0.08800
C1034       C  0.85852985  0.89988423  0.92081557     0.06900
H1035       H  0.88744186  0.86678242  0.91906372     0.12000
H1036       H  0.84564718  0.90679261  0.91931425     0.10800
N1037       N  0.05573941  0.90937398  0.56492771    -0.23600
N1038       N  0.05193438  0.92622305  0.55556959    -0.31500
C1039       C  0.03393820  0.92803142  0.55101186     0.04700
C1040       C  0.02588319  0.91158798  0.55774767     0.10800
C1041       C  0.04005918  0.89999160  0.56657541    -0.02300
H1042       H  0.02716364  0.94059491  0.54446105     0.11400
H1043       H  0.03901743  0.88597807  0.57466951     0.12600
Cu1044     Cu  0.07104023  0.94669118  0.55299956     0.44200
Cu1045     Cu  0.08242735  0.90108703  0.57706637     0.42000
Cu1046     Cu  0.11719130  0.93766857  0.57905003     0.43900
N1047       N  0.09063463  0.96673247  0.55686562    -0.31000
N1048       N  0.10766392  0.96378649  0.56698860    -0.25200
C1049       C  0.11645445  0.97983340  0.56850150    -0.01300
C1050       C  0.10428244  0.99334483  0.55877174     0.10900
C1051       C  0.08811881  0.98453943  0.55164853     0.04700
H1052       H  0.13051983  0.98155704  0.57663647     0.12300
H1053       H  0.07532210  0.99066672  0.54396161     0.11400
N1054       N  0.12256117  0.91018894  0.58902212    -0.32400
N1055       N  0.11020863  0.89715923  0.58827356    -0.24600
C1056       C  0.11844660  0.88127029  0.59568089     0.00200
C1057       C  0.13675291  0.88440191  0.60137562     0.08800
C1058       C  0.13888037  0.90284003  0.59691294     0.06900
H1059       H  0.11160056  0.86836011  0.59670901     0.12000
H1060       H  0.15140082  0.91038122  0.59908901     0.10800
N1061       N  0.05667820  0.91146191  0.94328411    -0.23600
N1062       N  0.05332860  0.92888274  0.94855939    -0.31500
C1063       C  0.03543373  0.93137893  0.95257400     0.04700
C1064       C  0.02695963  0.91478555  0.94980564     0.10800
C1065       C  0.04078851  0.90238204  0.94388678    -0.02300
H1066       H  0.02902866  0.94440850  0.95657338     0.11400
H1067       H  0.03937300  0.88793091  0.93961729     0.12600
Cu1068     Cu  0.07300357  0.94883635  0.94815343     0.44200
Cu1069     Cu  0.08311731  0.90186992  0.93378228     0.42000
Cu1070     Cu  0.11894936  0.93744473  0.92841583     0.43900
N1071       N  0.09327430  0.96804201  0.94448366    -0.31000
N1072       N  0.11031920  0.96421777  0.93681803    -0.25200
C1073       C  0.11967475  0.97989636  0.93497756    -0.01300
C1074       C  0.10781824  0.99407718  0.94193844     0.10900
C1075       C  0.09129026  0.98605342  0.94779814     0.04700
H1076       H  0.13389713  0.98089652  0.92849641     0.12300
H1077       H  0.07861684  0.99283016  0.95338650     0.11400
N1078       N  0.12331783  0.90957277  0.92105846    -0.32400
N1079       N  0.11068749  0.89687497  0.92303693    -0.24600
C1080       C  0.11841645  0.88061658  0.91617526     0.00200
C1081       C  0.13665027  0.88320944  0.90955164     0.08800
C1082       C  0.13927017  0.90167102  0.91291310     0.06900
H1083       H  0.11123815  0.86786444  0.91564702     0.12000
H1084       H  0.15184398  0.90889174  0.90933703     0.10800
N1085       N  0.05234586  0.13098361  0.55901046    -0.23600
N1086       N  0.04882830  0.11369755  0.55208481    -0.31500
C1087       C  0.03083334  0.11126991  0.54955060     0.04700
C1088       C  0.02251607  0.12775699  0.55507988     0.10800
C1089       C  0.03649093  0.14003792  0.56105085    -0.02300
H1090       H  0.02427618  0.09831937  0.54506147     0.11400
H1091       H  0.03523247  0.15433575  0.56741387     0.12600
Cu1092     Cu  0.06835051  0.09363943  0.54949759     0.44200
Cu1093     Cu  0.07887477  0.14050446  0.56769141     0.42000
Cu1094     Cu  0.11459803  0.10513166  0.57008410     0.43900
N1095       N  0.08872482  0.07446011  0.55264233    -0.31000
N1096       N  0.10583186  0.07834168  0.56066760    -0.25200
C1097       C  0.11522960  0.06268252  0.56272401    -0.01300
C1098       C  0.10336690  0.04844047  0.55559545     0.10900
C1099       C  0.08675330  0.05642336  0.54937441     0.04700
H1100       H  0.12948520  0.06172342  0.56974574     0.12300
H1101       H  0.07402198  0.04960041  0.54384518     0.11400
N1102       N  0.11927526  0.13300662  0.57838592    -0.32400
N1103       N  0.10653588  0.14563326  0.57735060    -0.24600
C1104       C  0.11430094  0.16194454  0.58373975     0.00200
C1105       C  0.13271788  0.15951442  0.58908036     0.08800
C1106       C  0.13539505  0.14104480  0.58548480     0.06900
H1107       H  0.10704975  0.17464886  0.58443982     0.12000
H1108       H  0.14814740  0.13394629  0.58778857     0.10800
N1109       N  0.10905426  0.07860250  0.93192641    -0.23600
N1110       N  0.09251850  0.07500106  0.94354704    -0.31500
C1111       C  0.09100806  0.05713887  0.94945935     0.04700
C1112       C  0.10732200  0.04903075  0.94124704     0.10800
C1113       C  0.11851095  0.06297572  0.93012670    -0.02300
H1114       H  0.07872803  0.05046717  0.95800232     0.11400
H1115       H  0.13229963  0.06180457  0.92052168     0.12600
Cu1116     Cu  0.07203082  0.09412612  0.94754820     0.44200
Cu1117     Cu  0.11712877  0.10480329  0.91751131     0.42000
Cu1118     Cu  0.08133947  0.13974184  0.91907563     0.43900
N1119       N  0.05220851  0.11394857  0.94371668    -0.31000
N1120       N  0.05530774  0.13067883  0.93268402    -0.25200
C1121       C  0.03933279  0.13951564  0.93026741    -0.01300
C1122       C  0.02568342  0.12772396  0.94035121     0.10900
C1123       C  0.03434006  0.11170145  0.94864670     0.04700
H1124       H  0.03772624  0.15326593  0.92071090     0.12300
H1125       H  0.02804667  0.09909281  0.95634892     0.11400
N1126       N  0.10856610  0.14476257  0.90631059    -0.32400
N1127       N  0.12137190  0.13220935  0.90559685    -0.24600
C1128       C  0.13722036  0.14006716  0.89678369     0.00200
C1129       C  0.13429378  0.15836384  0.89170658     0.08800
C1130       C  0.11601726  0.16087174  0.89798815     0.06900
H1131       H  0.14997864  0.13299164  0.89461320     0.12000
H1132       H  0.10868135  0.17351499  0.89690762     0.10800
N1133       N  0.21766619  0.24442204  0.59831907     0.02100
C1134       C  0.21698085  0.24427997  0.63636714    -0.08700
C1135       C  0.20429040  0.23175718  0.64801524    -0.04200
C1136       C  0.19687296  0.22389847  0.61506843    -0.04900
C1137       C  0.20555262  0.23211160  0.58494632    -0.08800
N1138       N  0.21731849  0.24368544  0.84663603     0.02100
C1139       C  0.21774791  0.24356775  0.88476311    -0.08700
C1140       C  0.20553643  0.23101173  0.89785675    -0.04200
C1141       C  0.19722102  0.22303970  0.86614046    -0.04900
C1142       C  0.20489681  0.23128478  0.83473561    -0.08800
N1143       N  0.27399206  0.30100744  0.51619543     0.02100
C1144       C  0.27386902  0.30063064  0.47806197    -0.08700
C1145       C  0.28604796  0.31310102  0.96468906    -0.04200
C1146       C  0.29407454  0.32155006  0.49613209    -0.04900
C1147       C  0.28622445  0.31367997  0.52784470    -0.08800
N1148       N  0.27319000  0.30037086  0.76317699     0.02100
C1149       C  0.27380859  0.30123095  0.72517390    -0.08700
C1150       C  0.28667743  0.31379562  0.71442558    -0.04200
C1151       C  0.29426801  0.32086163  0.74802594    -0.04900
C1152       C  0.28550587  0.31222533  0.77740357    -0.08800
C1153       C  0.28872348  0.31526443  0.81740769    -0.14800
C1154       C  0.29027723  0.31686811  0.85133404     0.09300
C1155       C  0.29061960  0.31736702  0.89133288     0.11100
C1156       C  0.28943989  0.31632961  0.92525682    -0.15700
C1157       C  0.29082308  0.31814234  0.67561428    -0.14800
C1158       C  0.29220129  0.31976025  0.64168528     0.09300
C1159       C  0.29187823  0.31960448  0.60142409     0.11100
C1160       C  0.29015089  0.31784120  0.56739837    -0.15700
C1161       C  0.26242347  0.28864750  0.95543552    -0.14800
C1162       C  0.25219890  0.27808657  0.93988007     0.09300
C1163       C  0.23988444  0.26556879  0.92314559     0.11100
C1164       C  0.22949855  0.25517119  0.90757012    -0.15700
C1165       C  0.22826680  0.25497821  0.82467348    -0.14800
C1166       C  0.23855696  0.26545890  0.81021692     0.09300
C1167       C  0.25113306  0.27816453  0.79642891     0.11100
C1168       C  0.26165359  0.28876746  0.78308660    -0.15700
C1169       C  0.26242423  0.29008436  0.70075897    -0.14800
C1170       C  0.25177031  0.27949716  0.68674903     0.09300
C1171       C  0.23893267  0.26662472  0.67354051     0.11100
C1172       C  0.22830592  0.25587698  0.65998866    -0.15700
C1173       C  0.20022319  0.22789051  0.68704329    -0.14800
C1174       C  0.19873264  0.22633578  0.72092348     0.09300
C1175       C  0.19894022  0.22623913  0.76111172     0.11100
C1176       C  0.20071725  0.22762638  0.79515001    -0.15700
C1177       C  0.20247758  0.22835893  0.54511908    -0.14800
C1178       C  0.20115722  0.22655692  0.51116867     0.09300
C1179       C  0.20105263  0.22614138  0.97112627     0.11100
C1180       C  0.20228490  0.22739709  0.93722355    -0.15700
C1181       C  0.26297678  0.28977757  0.53816108    -0.14800
C1182       C  0.25257526  0.27918774  0.55196044     0.09300
C1183       C  0.23986162  0.26634584  0.56473468     0.11100
C1184       C  0.22923033  0.25575958  0.57779989    -0.15700
C1185       C  0.14764325  0.17207690  0.88305258    -0.14800
C1186       C  0.15885235  0.18361094  0.87656841     0.09300
C1187       C  0.17208712  0.19726153  0.87023968     0.11100
C1188       C  0.18345265  0.20896829  0.86671200    -0.15700
C1189       C  0.18292701  0.21001325  0.61220385    -0.14800
C1190       C  0.17132880  0.19846988  0.60815127     0.09300
C1191       C  0.15778429  0.18491787  0.60216288     0.11100
C1192       C  0.14633132  0.17336404  0.59643094    -0.15700
C1193       C  0.11104352  0.01337457  0.94121821    -0.09600
C1194       C  0.11081233  0.02976460  0.94103901    -0.11100
C1195       C  0.10698418  0.01275474  0.55814672    -0.09600
C1196       C  0.10671358  0.02914809  0.55713492    -0.11100
C1197       C  0.99113707  0.91171095  0.95117214    -0.09600
C1198       C  0.00756250  0.91179728  0.95066779    -0.11100
C1199       C  0.99013710  0.90824568  0.55998749    -0.09600
C1200       C  0.00654613  0.90834561  0.55895473    -0.14300
C1201       C  0.88631498  0.01208523  0.94567665    -0.09600
C1202       C  0.88631429  0.02843773  0.94366378    -0.11100
C1203       C  0.00627368  0.13041720  0.93868489    -0.09600
C1204       C  0.98986755  0.13030017  0.93745657    -0.11100
C1205       C  0.88571897  0.02601886  0.56469703    -0.09600
C1206       C  0.88597648  0.00962845  0.56475881    -0.11100
C1207       C  0.00319586  0.13061167  0.55725320    -0.09600
C1208       C  0.98684002  0.13024969  0.55890837    -0.11100
C1209       C  0.60978041  0.52741320  0.82155728    -0.09600
C1210       C  0.60996082  0.51102389  0.82158984    -0.11100
C1211       C  0.60948229  0.52581756  0.92781660    -0.09600
C1212       C  0.60924292  0.50943508  0.92734110    -0.11100
C1213       C  0.48937114  0.62988727  0.82066587    -0.09600
C1214       C  0.50578685  0.62978539  0.82053028    -0.11100
C1215       C  0.49070885  0.62963443  0.92670367    -0.09600
C1216       C  0.50710786  0.62926611  0.92620831    -0.11100
C1217       C  0.30866575  0.33414336  0.75270196    -0.14800
C1218       C  0.32062751  0.34490279  0.76031541     0.09300
C1219       C  0.33450834  0.35735104  0.77148078     0.11100
C1220       C  0.34612336  0.36806899  0.78154128    -0.15700
C1221       C  0.48946325  0.40948908  0.82254344    -0.09600
C1222       C  0.50585809  0.40952283  0.82251503    -0.11100
C1223       C  0.38560131  0.51138663  0.81902786    -0.09600
C1224       C  0.38559900  0.52776934  0.81844614    -0.11100
C1225       C  0.34437035  0.37052071  0.46983735    -0.14800
C1226       C  0.33298827  0.35964082  0.47908964     0.09300
C1227       C  0.31952830  0.34673322  0.48882917     0.11100
C1228       C  0.30797609  0.33545444  0.49462942    -0.15700
C1229       C  0.48752968  0.40929110  0.42347082    -0.09600
C1230       C  0.50394475  0.40908211  0.42387796    -0.11100
C1231       C  0.38541548  0.51266810  0.42597394    -0.09600
C1232       C  0.38573191  0.52904847  0.42723296    -0.11100
C1233       C  0.68512663  0.33255602  0.75527638    -0.14800
C1234       C  0.67321963  0.34358911  0.75998316     0.09300
C1235       C  0.65939662  0.35646645  0.76754815     0.11100
C1236       C  0.64786528  0.36755466  0.77504400    -0.15700
C1237       C  0.64656283  0.36672832  0.97705811    -0.14800
C1238       C  0.65824442  0.35575081  0.98467130     0.09300
C1239       C  0.67224181  0.34300178  0.99261162     0.11100
C1240       C  0.68427023  0.33207915  0.49779567    -0.15700
C1241       C  0.70441503  0.31363986  0.93085096    -0.14800
C1242       C  0.70322065  0.31509912  0.89690151     0.09300
C1243       C  0.70333494  0.31528192  0.85685986     0.11100
C1244       C  0.70472557  0.31405728  0.82289854    -0.15700
C1245       C  0.70209879  0.31558379  0.57281982    -0.14800
C1246       C  0.70061323  0.31726432  0.60677356     0.09300
C1247       C  0.70084962  0.31725970  0.64696529     0.11100
C1248       C  0.70264637  0.31562406  0.68086039    -0.15700
C1249       C  0.84663399  0.17078241  0.88984033    -0.14800
C1250       C  0.83526205  0.18244471  0.88561501     0.09300
C1251       C  0.82197329  0.19626750  0.88162064     0.11100
C1252       C  0.81065652  0.20809360  0.87918331    -0.15700
C1253       C  0.76523538  0.25421709  0.91792418    -0.14800
C1254       C  0.75475257  0.26448275  0.93299340     0.09300
C1255       C  0.74206314  0.27684748  0.94822049     0.11100
C1256       C  0.73146863  0.28714429  0.96284635    -0.15700
C1257       C  0.73172496  0.28740392  0.79146081    -0.14800
C1258       C  0.74220214  0.27700666  0.80606981     0.09300
C1259       C  0.75483121  0.26447733  0.82079050     0.11100
C1260       C  0.76535964  0.25404413  0.83511288    -0.15700
C1261       C  0.81001278  0.20752996  0.62467218    -0.14800
C1262       C  0.82104828  0.19544499  0.62208341     0.09300
C1263       C  0.83391072  0.18123003  0.61794073     0.11100
C1264       C  0.84495965  0.16927412  0.61351912    -0.15700
C1265       C  0.76472253  0.25330758  0.66948314    -0.14800
C1266       C  0.75404613  0.26389008  0.68275575     0.09300
C1267       C  0.74131000  0.27676508  0.69555649     0.11100
C1268       C  0.73083795  0.28753383  0.70889929    -0.15700
C1269       C  0.79317108  0.22593084  0.80613335    -0.14800
C1270       C  0.79466417  0.22423189  0.77220682     0.09300
C1271       C  0.79456559  0.22404045  0.73204961     0.11100
C1272       C  0.79289395  0.22547650  0.69810853    -0.15700
C1273       C  0.79179992  0.22709155  0.55610082    -0.14800
C1274       C  0.79340153  0.22580178  0.52218447     0.09300
C1275       C  0.79359703  0.22583612  0.98212484     0.11100
C1276       C  0.79226285  0.22722740  0.94817078    -0.15700
C1277       C  0.76451267  0.25386111  0.58710948    -0.14800
C1278       C  0.75390134  0.26435677  0.57312849     0.09300
C1279       C  0.74112096  0.27704797  0.55939881     0.11100
C1280       C  0.73054840  0.28759377  0.54547347    -0.15700
C1281       C  0.68582035  0.70585987  0.75890116    -0.14800
C1282       C  0.67412543  0.69450321  0.76283602     0.09300
C1283       C  0.66048227  0.68128242  0.76952480     0.11100
C1284       C  0.64895941  0.67007974  0.77622959    -0.15700
C1285       C  0.64999258  0.66895751  0.97939643    -0.14800
C1286       C  0.66118530  0.68048012  0.98747987     0.09300
C1287       C  0.67433109  0.69413828  0.99614189     0.11100
C1288       C  0.68560304  0.70585934  0.00198018    -0.15700
C1289       C  0.70426223  0.72562923  0.93602214    -0.14800
C1290       C  0.70283756  0.72419351  0.90201533     0.09300
C1291       C  0.70287938  0.72394954  0.86196644     0.11100
C1292       C  0.70445460  0.72506061  0.82810432    -0.15700
C1293       C  0.70316183  0.72292369  0.57788551    -0.14800
C1294       C  0.70189919  0.72123123  0.61178491     0.09300
C1295       C  0.70227010  0.72126482  0.65198654     0.11100
C1296       C  0.70402344  0.72290690  0.68599510    -0.15700
C1297       C  0.81187123  0.83043928  0.89154214    -0.14800
C1298       C  0.82331053  0.84212287  0.89610774     0.09300
C1299       C  0.83666747  0.85582534  0.90280990     0.11100
C1300       C  0.84798653  0.86748565  0.90897311    -0.15700
C1301       C  0.76559089  0.78490356  0.92666201    -0.14800
C1302       C  0.75488481  0.77478931  0.94095343     0.09300
C1303       C  0.74200212  0.76254878  0.95530692     0.11100
C1304       C  0.73136022  0.75227835  0.96932015    -0.15700
C1305       C  0.76610944  0.78472716  0.84397597    -0.14800
C1306       C  0.75540759  0.77431473  0.82940763     0.09300
C1307       C  0.74258669  0.76180949  0.81437639     0.11100
C1308       C  0.73205443  0.75141289  0.79920487    -0.15700
C1309       C  0.84817424  0.86681671  0.61731639    -0.14800
C1310       C  0.83684116  0.85548105  0.62458250     0.09300
C1311       C  0.82338122  0.84213578  0.63205986     0.11100
C1312       C  0.81180271  0.83067715  0.63644049    -0.15700
C1313       C  0.73248867  0.75077588  0.71676838    -0.14800
C1314       C  0.74332262  0.76138688  0.70451742     0.09300
C1315       C  0.75617733  0.77424823  0.69240679     0.11100
C1316       C  0.76661150  0.78489941  0.67890228    -0.15700
C1317       C  0.79436108  0.81250055  0.81667764    -0.14800
C1318       C  0.79583384  0.81399684  0.78277085     0.09300
C1319       C  0.79572550  0.81397061  0.74256253     0.11100
C1320       C  0.79409221  0.81245816  0.70850519    -0.15700
C1321       C  0.79272474  0.81185007  0.95861741    -0.14800
C1322       C  0.79407030  0.81350203  0.99257843     0.09300
C1323       C  0.79407735  0.81370294  0.53259429     0.11100
C1324       C  0.79272794  0.81232058  0.56643298    -0.15700
C1325       C  0.73108478  0.75128477  0.55205090    -0.14800
C1326       C  0.74173173  0.76161815  0.56708993     0.09300
C1327       C  0.75455508  0.77413978  0.58213830     0.11100
C1328       C  0.76526890  0.78463214  0.59645206    -0.15700
C1329       C  0.34645193  0.67074632  0.77041174    -0.14800
C1330       C  0.33523360  0.68239669  0.76433516     0.09300
C1331       C  0.32216134  0.69629585  0.75827493     0.11100
C1332       C  0.31105656  0.70826629  0.75448920    -0.15700
C1333       C  0.34861404  0.67249868  0.97936984    -0.14800
C1334       C  0.33728025  0.68392801  0.98636791     0.09300
C1335       C  0.32392637  0.69743326  0.99367346     0.11100
C1336       C  0.31255929  0.70909232  0.49835530    -0.15700
C1337       C  0.29331106  0.72793333  0.93062210    -0.14800
C1338       C  0.29423535  0.72627151  0.89663936     0.09300
C1339       C  0.29386817  0.72613607  0.85657075     0.11100
C1340       C  0.29240983  0.72757027  0.82264795    -0.15700
C1341       C  0.29571134  0.72722915  0.57268497    -0.14800
C1342       C  0.29702375  0.72555684  0.60664477     0.09300
C1343       C  0.29663621  0.72544649  0.64679662     0.11100
C1344       C  0.29476734  0.72691670  0.68068540    -0.15700
C1345       C  0.18731976  0.83451940  0.87920377    -0.14800
C1346       C  0.17548483  0.84565419  0.88421111     0.09300
C1347       C  0.16169958  0.85857656  0.89238817     0.11100
C1348       C  0.15013405  0.86964485  0.90013339    -0.15700
C1349       C  0.23413227  0.78907876  0.91664876    -0.14800
C1350       C  0.24467746  0.77865958  0.93099630     0.09300
C1351       C  0.25718363  0.76618228  0.94640512     0.11100
C1352       C  0.26750838  0.75581514  0.96159687    -0.15700
C1353       C  0.23275319  0.78926491  0.83403371    -0.14800
C1354       C  0.24308696  0.77871291  0.81937740     0.09300
C1355       C  0.25570361  0.76591888  0.80547629     0.11100
C1356       C  0.26620175  0.75530400  0.79154612    -0.15700
C1357       C  0.15075916  0.87115652  0.60954872    -0.14800
C1358       C  0.16249658  0.86003531  0.61581689     0.09300
C1359       C  0.17631741  0.84687439  0.62208176     0.11100
C1360       C  0.18812476  0.83557073  0.62575650    -0.15700
C1361       C  0.23376950  0.79023688  0.66952372    -0.14800
C1362       C  0.24413040  0.77953609  0.68356011     0.09300
C1363       C  0.25673943  0.76649164  0.69636989     0.11100
C1364       C  0.26717490  0.75555937  0.70933798    -0.15700
C1365       C  0.20524260  0.81664799  0.80614077    -0.14800
C1366       C  0.20380720  0.81825035  0.77216390     0.09300
C1367       C  0.20408540  0.81845029  0.73197785     0.11100
C1368       C  0.20592420  0.81719092  0.69803161    -0.15700
C1369       C  0.20681376  0.81685088  0.94821164    -0.14800
C1370       C  0.20560494  0.81862192  0.98209932     0.09300
C1371       C  0.20575926  0.81897615  0.52212306     0.11100
C1372       C  0.20724959  0.81770383  0.55604598    -0.15700
C1373       C  0.23505606  0.79021207  0.58713093    -0.14800
C1374       C  0.24563374  0.77962768  0.57328728     0.09300
C1375       C  0.25816258  0.76683115  0.55888250     0.11100
C1376       C  0.26844081  0.75610587  0.54452330    -0.15700
loop_ 
_geom_bond_atom_site_label_1 
_geom_bond_atom_site_label_2 
_geom_bond_distance 
_geom_bond_site_symmetry_2 
_ccdc_geom_bond_type 
N1            C5   1.356       .  A
N1            C2   1.345       .  A
N1          C673   1.409       .  S
C2            C3   1.385       .  A
C2          C685   1.451       .  S
C3            C4   1.394       .  A
C3          C684   1.442       .  S
C4            C5   1.400       .  A
C4          C672   1.457       .  S
C5          C680   1.449       .  S
N6           C10   1.356       .  A
N6            C7   1.345       .  A
N6          C665   1.410       .  S
C7            C8   1.383       .  A
C7          C661   1.448       .  S
C8            C9   1.392       .  A
C8          C681   1.442       .  S
C9           C10   1.400       .  A
C9          C657   1.455       .  S
C10         C677   1.449       .  S
N11          C15   1.351       .  A
N11         C700   1.346       .  A
N11         C664   1.410       .  S
C12         N699   1.346   1_554  A
C12          C13   1.390       .  A
C12         C688   1.451       .  S
C13          C14   1.399       .  A
C13         C653   1.446       .  S
C14         C703   1.394   1_554  A
C14         C648   1.456   1_554  S
C15         C702   1.394       .  A
C15         C649   1.445       .  S
N16          C20   1.352       .  A
N16          C17   1.345       .  A
N16         C668   1.410       .  S
C17          C18   1.390       .  A
C17         C676   1.448       .  S
C18          C19   1.398       .  A
C18         C656   1.446       .  S
C19          C20   1.395       .  A
C19         C644   1.456       .  S
C20         C652   1.445       .  S
N21          C25   1.357       .  A
N21          C22   1.345       .  A
N21         C628   1.411       .  S
C22          C23   1.385       .  A
C22         C640   1.451       .  S
C23          C24   1.394       .  A
C23         C636   1.441       .  S
C24          C25   1.402       .  A
C24         C624   1.460       .  S
C25         C632   1.449       .  S
N26          C30   1.352       .  A
N26          C27   1.346       .  A
N26         C613   1.411       .  S
C27          C28   1.391       .  A
C27         C617   1.449       .  S
C28          C29   1.399       .  A
C28         C629   1.447       .  S
C29          C30   1.395       .  A
C29         C609   1.458       .  S
C30         C633   1.443       .  S
N31          C35   1.352       .  A
N31         C720   1.346       .  A
N31         C616   1.411       .  S
C32         N719   1.346   1_554  A
C32          C33   1.391       .  A
C32         C637   1.450       .  S
C33         C722   1.399       .  A
C33         C605   1.447       .  S
C34          C35   1.395       .  A
C34         C721   1.399       .  A
C34         C600   1.457       .  S
C35         C601   1.445       .  S
N36          C40   1.351       .  A
N36          C37   1.345       .  A
N36         C620   1.410       .  S
C37          C38   1.392       .  A
C37         C625   1.451       .  S
C38          C39   1.400       .  A
C38         C608   1.447       .  S
C39          C40   1.395       .  A
C39         C593   1.458       .  S
C40         C604   1.444       .  S
N41          C45   1.352       .  A
N41          C42   1.345       .  A
N41         C589   1.411       .  S
C42          C43   1.387       .  A
C42         C577   1.445       .  S
C43          C44   1.396       .  A
C43         C584   1.446       .  S
C44          C45   1.396       .  A
C44         C573   1.453       .  S
C45         C585   1.445       .  S
N46          C50   1.352       .  A
N46          C47   1.346       .  A
N46         C565   1.410       .  S
C47          C48   1.388       .  A
C47         C572   1.447       .  S
C48          C49   1.396       .  A
C48         C581   1.446       .  S
C49          C50   1.395       .  A
C49         C564   1.453       .  S
C50         C588   1.445       .  S
N51          C55   1.351       .  A
N51         C740   1.345       .  A
N51         C568   1.410       .  S
C52         N739   1.345   1_554  A
C52          C53   1.391       .  A
C52         C592   1.449       .  S
C53          C54   1.399       .  A
C53         C557   1.447       .  S
C54         C743   1.394   1_554  A
C54         C552   1.456   1_554  S
C55         C742   1.394       .  A
C55         C553   1.445       .  S
N56          C60   1.350       .  A
N56          C57   1.345       .  A
N56         C569   1.409       .  S
C57          C58   1.389       .  A
C57         C580   1.445       .  S
C58          C59   1.397       .  A
C58         C560   1.447       .  S
C59          C60   1.393       .  A
C59         C545   1.451       .  S
C60         C556   1.445       .  S
N61          C65   1.352       .  A
N61          N62   1.323       .  A
N61         Cu69   2.098       .  S
N62          C63   1.344       .  A
N62         Cu68   2.072       .  S
C63          C64   1.378       .  A
C63          H66   1.082       .  S
C64          C65   1.387       .  A
C64         C543   1.447       .  S
C65          H67   1.082       .  S
Cu68         N71   2.072       .  S
Cu69         N79   2.099       .  S
Cu70         N72   2.106       .  S
Cu70         N78   2.107       .  S
N71          C75   1.345       .  A
N71          N72   1.323       .  A
N72          C73   1.353       .  A
C73          C74   1.389       .  A
C73          H76   1.082       .  S
C74          C75   1.379       .  A
C74         C541   1.450       .  S
C75          H77   1.082       .  S
N78          C82   1.351       .  A
N78          N79   1.327       .  A
N79          C80   1.350       .  A
C80          C81   1.383       .  A
C80          H83   1.082       .  S
C81          C82   1.385       .  A
C81         C537   1.454       .  S
C82          H84   1.082       .  S
N85          C89   1.353       .  A
N85          N86   1.323       .  A
N85         Cu93   2.103       .  S
N86          C87   1.344       .  A
N86         Cu92   2.070       .  S
C87          C88   1.378       .  A
C87          H90   1.082       .  S
C88          C89   1.388       .  A
C88         C533   1.447       .  S
C89          H91   1.082       .  S
Cu92         N95   2.070       .  S
Cu93        N103   2.105       .  S
Cu94         N96   2.096       .  S
Cu94        N102   2.097       .  S
N95          C99   1.344       .  A
N95          N96   1.322       .  A
N96          C97   1.352       .  A
C97          C98   1.388       .  A
C97         H100   1.082       .  S
C98          C99   1.378       .  A
C98         C535   1.447       .  S
C99         H101   1.082       .  S
N102        C106   1.348       .  A
N102        N103   1.327       .  A
N103        C104   1.351       .  A
C104        C105   1.385       .  A
C104        H107   1.082       .  S
C105        C106   1.382       .  A
C105        C532   1.452       .  S
C106        H108   1.082       .  S
N109        C801   1.352       .  A
N109        N110   1.323       .  A
N109       Cu117   2.098       .  S
N110        C111   1.344       .  A
N110       Cu116   2.071       .  S
C111        C800   1.379       .  A
C111        H114   1.082       .  S
C112        C113   1.387       .  A
C112        C799   1.379       .  A
C112        C544   1.447       .  S
C113        N797   1.352       .  A
C113        H115   1.082       .  S
Cu116       N119   2.071       .  S
Cu117       N127   2.100       .  S
Cu118       N120   2.107       .  S
Cu118       N126   2.108       .  S
N119        C123   1.344       .  A
N119        N120   1.323       .  A
N120        C121   1.353       .  A
C121        C122   1.389       .  A
C121        H124   1.082       .  S
C122        C123   1.378       .  A
C122        C527   1.449       .  S
C123        H125   1.082       .  S
N126        C130   1.351       .  A
N126        N127   1.327       .  A
N127        C128   1.350       .  A
C128        C129   1.383       .  A
C128        H131   1.082       .  S
C129        C130   1.385       .  A
C129        C645   1.454       .  S
C130        H132   1.082       .  S
N133        C137   1.352       .  A
N133        N134   1.323       .  A
N133       Cu141   2.100       .  S
N134        C135   1.344       .  A
N134       Cu140   2.074       .  S
C135        C136   1.379       .  A
C135        H138   1.082       .  S
C136        C137   1.387       .  A
C136        C536   1.447       .  S
C137        H139   1.082       .  S
Cu140       N143   2.074       .  S
Cu141       N151   2.101       .  S
Cu142       N144   2.105       .  S
Cu142       N150   2.105       .  S
N143        C147   1.345       .  A
N143        N144   1.323       .  A
N144        C145   1.353       .  A
C145        C146   1.389       .  A
C145        H148   1.082       .  S
C146        C147   1.379       .  A
C146        C525   1.450       .  S
C147        H149   1.082       .  S
N150        C154   1.350       .  A
N150        N151   1.327       .  A
N151        C152   1.350       .  A
C152        C153   1.384       .  A
C152        H155   1.082       .  S
C153        C154   1.384       .  A
C153        C641   1.453       .  S
C154        H156   1.082       .  S
N157        C849   1.353       .  A
N157        N158   1.323       .  A
N157       Cu165   2.107       .  S
N158        C159   1.345       .  A
N158       Cu164   2.073       .  S
C159        C848   1.379       .  A
C159        H162   1.082       .  S
C160        C161   1.388       .  A
C160        C847   1.379       .  A
C160        C542   1.450       .  S
C161        N845   1.353       .  A
C161        H163   1.082       .  S
Cu164       N167   2.073       .  S
Cu165       N175   2.108       .  S
Cu166       N168   2.096       .  S
Cu166       N174   2.097       .  S
N167        C171   1.344       .  A
N167        N168   1.323       .  A
N168        C169   1.352       .  A
C169        C170   1.387       .  A
C169        H172   1.082       .  S
C170        C171   1.379       .  A
C170        C524   1.446       .  S
C171        H173   1.082       .  S
N174        C178   1.349       .  A
N174        N175   1.327       .  A
N175        C176   1.351       .  A
C176        C177   1.386       .  A
C176        H179   1.082       .  S
C177        C178   1.382       .  A
C177        C549   1.453       .  S
C178        H180   1.082       .  S
N181        C185   1.352       .  A
N181        N182   1.323       .  A
N181       Cu189   2.098       .  S
N182        C183   1.344       .  A
N182       Cu188   2.072       .  S
C183        C184   1.379       .  A
C183        H186   1.082       .  S
C184        C185   1.387       .  A
C184        C534   1.448       .  S
C185        H187   1.082       .  S
Cu188       N191   2.072       .  S
Cu189       N199   2.099       .  S
Cu190       N192   2.096       .  S
Cu190       N198   2.097       .  S
N191        C195   1.344       .  A
N191        N192   1.322       .  A
N192        C193   1.353       .  A
C193        C194   1.388       .  A
C193        H196   1.082       .  S
C194        C195   1.378       .  A
C194        C522   1.447       .  S
C195        H197   1.082       .  S
N198        C202   1.348       .  A
N198        N199   1.327       .  A
N199        C200   1.350       .  A
C200        C201   1.383       .  A
C200        H203   1.082       .  S
C201        C202   1.381       .  A
C201        C548   1.448       .  S
C202        H204   1.082       .  S
N205        C209   1.352       .  A
N205        N206   1.323       .  A
N205       Cu213   2.101       .  S
N206        C207   1.344       .  A
N206       Cu212   2.073       .  S
C207        C208   1.378       .  A
C207        H210   1.082       .  S
C208        C209   1.387       .  A
C208        C523   1.446       .  S
C209        H211   1.082       .  S
Cu212       N215   2.073       .  S
Cu213       N223   2.102       .  S
Cu214       N216   2.103       .  S
Cu214       N222   2.104       .  S
N215        C219   1.345       .  A
N215        N216   1.323       .  A
N216        C217   1.352       .  A
C217        C218   1.388       .  A
C217        H220   1.082       .  S
C218        C219   1.379       .  A
C218        C528   1.449       .  S
C219        H221   1.082       .  S
N222        C226   1.350       .  A
N222        N223   1.327       .  A
N223        C224   1.351       .  A
C224        C225   1.385       .  A
C224        H227   1.082       .  S
C225        C226   1.384       .  A
C225        C597   1.454       .  S
C226        H228   1.082       .  S
N229        C233   1.353       .  A
N229        N230   1.324       .  A
N229       Cu237   2.107       .  S
N230        C231   1.345       .  A
N230       Cu236   2.076       .  S
C231        C232   1.379       .  A
C231        H234   1.082       .  S
C232        C233   1.389       .  A
C232        C526   1.450       .  S
C233        H235   1.082       .  S
Cu236       N239   2.076       .  S
Cu237       N247   2.108       .  S
Cu238       N240   2.099       .  S
Cu238       N246   2.100       .  S
N239        C243   1.345       .  A
N239        N240   1.323       .  A
N240        C241   1.352       .  A
C241        C242   1.387       .  A
C241        H244   1.082       .  S
C242        C243   1.379       .  A
C242        C521   1.448       .  S
C243        H245   1.082       .  S
N246        C250   1.350       .  A
N246        N247   1.327       .  A
N247        C248   1.351       .  A
C248        C249   1.385       .  A
C248        H251   1.082       .  S
C249        C250   1.384       .  A
C249        C596   1.455       .  S
C250        H252   1.082       .  S
N253        C257   1.352       .  A
N253        N254   1.323       .  A
N253       Cu261   2.102       .  S
N254        C255   1.344       .  A
N254       Cu260   2.073       .  S
C255        C256   1.379       .  A
C255        H258   1.082       .  S
C256        C257   1.387       .  A
C256        C517   1.448       .  S
C257        H259   1.082       .  S
Cu260       N263   2.073       .  S
Cu261       N271   2.103       .  S
Cu262       N264   2.095       .  S
Cu262       N270   2.096       .  S
N263        C267   1.345       .  A
N263        N264   1.323       .  A
N264        C265   1.352       .  A
C265        C266   1.387       .  A
C265        H268   1.082       .  S
C266        C267   1.379       .  A
C266        C520   1.447       .  S
C267        H269   1.082       .  S
N270        C274   1.349       .  A
N270        N271   1.327       .  A
N271        C272   1.351       .  A
C272        C273   1.385       .  A
C272        H275   1.082       .  S
C273        C274   1.382       .  A
C273        C576   1.451       .  S
C274        H276   1.082       .  S
N277        C281   1.353       .  A
N277        N278   1.323       .  A
N277       Cu285   2.102       .  S
N278        C279   1.345       .  A
N278       Cu284   2.073       .  S
C279        C280   1.379       .  A
C279        H282   1.082       .  S
C280        C281   1.388       .  A
C280        C516   1.449       .  S
C281        H283   1.082       .  S
Cu284       N287   2.073       .  S
Cu285       N295   2.102       .  S
Cu286       N288   2.099       .  S
Cu286       N294   2.101       .  S
N287        C291   1.344       .  A
N287        N288   1.323       .  A
N288        C289   1.352       .  A
C289        C290   1.388       .  A
C289        H292   1.082       .  S
C290        C291   1.379       .  A
C290        C514   1.448       .  S
C291        H293   1.082       .  S
N294        C298   1.350       .  A
N294        N295   1.327       .  A
N295        C296   1.350       .  A
C296        C297   1.383       .  A
C296        H299   1.082       .  S
C297        C298   1.383       .  A
C297        C561   1.451       .  S
C298        H300   1.082       .  S
N301        C305   1.354       .  A
N301        N302   1.323       .  A
N301       Cu309   2.110       .  S
N302        C303   1.345       .  A
N302       Cu308   2.073       .  S
C303        C304   1.379       .  A
C303        H306   1.082       .  S
C304        C305   1.389       .  A
C304        C511   1.451       .  S
C305        H307   1.082       .  S
Cu308       N311   2.073       .  S
Cu309       N319   2.112       .  S
Cu310       N312   2.102       .  S
Cu310       N318   2.104       .  S
N311        C315   1.345       .  A
N311        N312   1.323       .  A
N312        C313   1.352       .  A
C313        C314   1.388       .  A
C313        H316   1.082       .  S
C314        C315   1.379       .  A
C314        C518   1.448   1_565  S
C315        H317   1.082       .  S
N318        C322   1.351       .  A
N318        N319   1.327       .  A
N319        C320   1.352       .  A
C320        C321   1.386       .  A
C320        H323   1.082       .  S
C321        C322   1.385       .  A
C321        C621   1.457       .  S
C322        H324   1.082       .  S
N325        C329   1.354       .  A
N325        N326   1.323       .  A
N325       Cu333   2.110       .  S
N326        C327   1.345       .  A
N326       Cu332   2.073       .  S
C327        C328   1.379       .  A
C327        H330   1.082       .  S
C328        C329   1.390       .  A
C328        C509   1.452       .  S
C329        H331   1.082       .  S
Cu332       N335   2.072       .  S
Cu333       N343   2.111       .  S
Cu334       N336   2.102       .  S
Cu334       N342   2.103       .  S
N335        C339   1.344       .  A
N335        N336   1.323       .  A
N336        C337   1.353       .  A
C337        C338   1.388       .  A
C337        H340   1.082       .  S
C338        C339   1.378       .  A
C338        C513   1.448   1_565  S
C339        H341   1.082       .  S
N342        C346   1.351       .  A
N342        N343   1.327       .  A
N343        C344   1.351       .  A
C344        C345   1.385       .  A
C344        H347   1.082       .  S
C345        C346   1.384       .  A
C345        C612   1.456       .  S
C346        H348   1.082       .  S
N349        C353   1.353       .  A
N349        N350   1.323       .  A
N349       Cu357   2.106       .  S
N350        C351   1.345       .  A
N350       Cu356   2.074       .  S
C351        C352   1.379       .  A
C351        H354   1.082       .  S
C352        C353   1.389       .  A
C352        C512   1.451       .  S
C353        H355   1.082       .  S
Cu356       N359   2.074       .  S
Cu357       N367   2.107       .  S
Cu358       N360   2.103       .  S
Cu358       N366   2.104       .  S
N359        C363   1.345       .  A
N359        N360   1.323       .  A
N360        C361   1.353       .  A
C361        C362   1.388       .  A
C361        H364   1.082       .  S
C362        C363   1.379       .  A
C362        C507   1.450   1_565  S
C363        H365   1.082       .  S
N366        C370   1.351       .  A
N366        N367   1.327       .  A
N367        C368   1.351       .  A
C368        C369   1.385       .  A
C368        H371   1.082       .  S
C369        C370   1.384       .  A
C369        C669   1.454       .  S
C370        H372   1.082       .  S
N373        C377   1.354       .  A
N373        N374   1.323       .  A
N373       Cu381   2.109       .  S
N374        C375   1.345       .  A
N374       Cu380   2.072       .  S
C375        C376   1.379       .  A
C375        H378   1.082       .  S
C376        C377   1.390       .  A
C376        C510   1.452       .  S
C377        H379   1.082       .  S
Cu380       N383   2.071       .  S
Cu381       N391   2.110       .  S
Cu382       N384   2.098       .  S
Cu382       N390   2.099       .  S
N383        C387   1.344       .  A
N383        N384   1.322       .  A
N384        C385   1.353       .  A
C385        C386   1.388       .  A
C385        H388   1.082       .  S
C386        C387   1.378       .  A
C386        C505   1.447   1_565  S
C387        H389   1.082       .  S
N390        C394   1.349       .  A
N390        N391   1.328       .  A
N391        C392   1.351       .  A
C392        C393   1.385       .  A
C392        H395   1.082       .  S
C393        C394   1.382       .  A
C393        C660   1.453       .  S
C394        H396   1.082       .  S
N397        C401   1.352       .  A
N397        N398   1.323       .  A
N397       Cu405   2.101       .  S
N398        C399   1.344       .  A
N398       Cu404   2.072       .  S
C399        C400   1.378       .  A
C399        H402   1.082       .  S
C400        C401   1.387       .  A
C400        C519   1.447       .  S
C401        H403   1.082       .  S
Cu404       N407   2.072       .  S
Cu405       N415   2.102       .  S
Cu406       N408   2.105       .  S
Cu406       N414   2.106       .  S
N407        C411   1.345       .  A
N407        N408   1.323       .  A
N408        C409   1.353       .  A
C409        C410   1.388       .  A
C409        H412   1.082       .  S
C410        C411   1.379       .  A
C410        C508   1.450       .  S
C411        H413   1.082       .  S
N414        C418   1.350       .  A
N414        N415   1.327       .  A
N415        C416   1.350       .  A
C416        C417   1.384       .  A
C416        H419   1.082       .  S
C417        C418   1.384       .  A
C417        C504   1.454       .  S
C418        H420   1.082       .  S
N421        C425   1.352       .  A
N421        N422   1.323       .  A
N421       Cu429   2.099       .  S
N422        C423   1.345       .  A
N422       Cu428   2.077       .  S
C423        C424   1.380       .  A
C423        H426   1.082       .  S
C424        C425   1.387       .  A
C424        C506   1.448       .  S
C425        H427   1.082       .  S
Cu428       N431   2.077       .  S
Cu429       N439   2.100       .  S
Cu430       N432   2.102       .  S
Cu430       N438   2.103       .  S
N431        C435   1.346       .  A
N431        N432   1.323       .  A
N432        C433   1.352       .  A
C433        C434   1.387       .  A
C433        H436   1.082       .  S
C434        C435   1.380       .  A
C434        C515   1.449       .  S
C435        H437   1.082       .  S
N438        C442   1.350       .  A
N438        N439   1.326       .  A
N439        C440   1.350       .  A
C440        C441   1.384       .  A
C440        H443   1.082       .  S
C441        C442   1.385       .  A
C441        C497   1.454       .  S
C442        H444   1.082       .  S
N445        C449   1.352       .  A
N445        C446   1.345       .  A
N445        C496   1.412       .  S
C446        C447   1.389       .  A
C446        C484   1.446       .  S
C447        C448   1.398       .  A
C447        C485   1.447       .  S
C448        C449   1.396       .  A
C448        C501   1.457       .  S
C449        C489   1.444       .  S
N450        C454   1.356       .  A
N450        C451   1.346       .  A
N450        C477   1.411       .  S
C451        C452   1.384       .  A
C451        C476   1.449       .  S
C452        C453   1.393       .  A
C452        C492   1.442       .  S
C453        C454   1.400       .  A
C453        C500   1.456       .  S
C454        C488   1.448       .  S
N455        C459   1.358       .  A
N455        C456   1.346   1_554  A
N455        C493   1.411       .  S
C456       C1145   1.381       .  A
C456       C1161   1.449       .  S
C457       C1144   1.381       .  A
C457       C1146   1.391       .  A
C457        C468   1.441       .  S
C458        C459   1.402   1_556  A
C458       C1145   1.391       .  A
C458        C540   1.456       .  S
C459        C472   1.451       .  S
N460        C464   1.351       .  A
N460        C461   1.345       .  A
N460        C480   1.411       .  S
C461        C462   1.390       .  A
C461        C481   1.445       .  S
C462        C463   1.399       .  A
C462        C469   1.449       .  S
C463        C464   1.393       .  A
C463        C529   1.454       .  S
C464        C465   1.443       .  S
C465        C466   1.206       .  T
C466        C467   1.412       .  S
C467        C468   1.205       .  T
C469        C470   1.211       .  T
C470        C471   1.421       .  S
C471        C472   1.211       .  T
C473       C1144   1.449       .  S
C473        C474   1.208       .  T
C474        C475   1.415       .  S
C475        C476   1.208       .  T
C477        C478   1.209       .  T
C478        C479   1.418       .  S
C479        C480   1.209       .  T
C481        C482   1.207       .  T
C482        C483   1.414       .  S
C483        C484   1.207       .  T
C485        C486   1.210       .  T
C486        C487   1.419       .  S
C487        C488   1.210       .  T
C489        C490   1.206       .  T
C490       C1179   1.413   1_554  S
C491        C492   1.206       .  T
C491       C1178   1.413       .  S
C493        C494   1.210       .  T
C494        C495   1.419       .  S
C495        C496   1.210       .  T
C497        C498   1.216       .  T
C498        C499   1.428       .  S
C499        C500   1.215       .  T
C501        C502   1.215       .  T
C502        C503   1.428       .  S
C503        C504   1.216       .  T
C505        C506   1.212       .  T
C507        C508   1.214       .  T
C509        C510   1.215   1_655  T
C511        C512   1.214   1_655  T
C513        C514   1.212       .  T
C515        C516   1.213   1_455  T
C517        C518   1.212       .  T
C519        C520   1.212   1_455  T
C521        C522   1.212       .  T
C523        C524   1.211       .  T
C525        C526   1.214       .  T
C527        C528   1.213       .  T
C529        C530   1.214       .  T
C530        C531   1.426       .  S
C531        C532   1.214       .  T
C533        C534   1.212       .  T
C535        C536   1.212       .  T
C537        C538   1.216       .  T
C538        C539   1.428       .  S
C539        C540   1.215       .  T
C541        C542   1.214       .  T
C543        C544   1.212       .  T
C545        C546   1.212       .  T
C546        C547   1.422       .  S
C547        C548   1.212       .  T
C549        C550   1.215       .  T
C550        C551   1.428       .  S
C551       C1240   1.215       .  T
C552       C1239   1.215       .  T
C553        C554   1.207       .  T
C554        C555   1.414       .  S
C555        C556   1.207       .  T
C557        C558   1.210       .  T
C558        C559   1.419       .  S
C559        C560   1.210       .  T
C561        C562   1.214       .  T
C562        C563   1.425       .  S
C563        C564   1.214       .  T
C565        C566   1.208       .  T
C566        C567   1.416       .  S
C567        C568   1.208       .  T
C569        C570   1.207       .  T
C570        C571   1.415       .  S
C571        C572   1.207       .  T
C573        C574   1.214       .  T
C574        C575   1.425       .  S
C575        C576   1.214       .  T
C577        C578   1.206       .  T
C578        C579   1.413       .  S
C579        C580   1.206       .  T
C581        C582   1.209       .  T
C582        C583   1.417       .  S
C583        C584   1.209       .  T
C585        C586   1.207       .  T
C586       C1275   1.414   1_554  S
C587        C588   1.207       .  T
C587       C1274   1.414       .  S
C589        C590   1.209       .  T
C590        C591   1.417       .  S
C591        C592   1.209       .  T
C593        C594   1.216       .  T
C594        C595   1.429       .  S
C595        C596   1.216       .  T
C597        C598   1.216       .  T
C598        C599   1.429       .  S
C599        C600   1.216       .  T
C601        C602   1.207       .  T
C602        C603   1.414       .  S
C603        C604   1.207       .  T
C605        C606   1.210       .  T
C606        C607   1.419       .  S
C607        C608   1.210       .  T
C609        C610   1.216       .  T
C610        C611   1.430       .  S
C611        C612   1.217       .  T
C613        C614   1.209       .  T
C614        C615   1.418       .  S
C615        C616   1.209       .  T
C617        C618   1.208       .  T
C618        C619   1.417       .  S
C619        C620   1.208       .  T
C621        C622   1.218       .  T
C622        C623   1.431       .  S
C623        C624   1.217       .  T
C625        C626   1.210       .  T
C626        C627   1.419       .  S
C627        C628   1.210       .  T
C629        C630   1.210       .  T
C630        C631   1.419       .  S
C631        C632   1.210       .  T
C633        C634   1.206       .  T
C634       C1323   1.412       .  S
C635        C636   1.206       .  T
C635       C1322   1.412   1_554  S
C637        C638   1.209       .  T
C638        C639   1.418       .  S
C639        C640   1.209       .  T
C641        C642   1.215       .  T
C642        C643   1.427       .  S
C643        C644   1.215       .  T
C645        C646   1.216       .  T
C646        C647   1.428       .  S
C647       C1336   1.215       .  T
C648       C1335   1.215       .  T
C649        C650   1.207       .  T
C650        C651   1.414       .  S
C651        C652   1.207       .  T
C653        C654   1.209       .  T
C654        C655   1.418       .  S
C655        C656   1.209       .  T
C657        C658   1.215       .  T
C658        C659   1.427       .  S
C659        C660   1.215       .  T
C661        C662   1.208       .  T
C662        C663   1.415       .  S
C663        C664   1.208       .  T
C665        C666   1.208       .  T
C666        C667   1.416       .  S
C667        C668   1.208       .  T
C669        C670   1.216       .  T
C670        C671   1.428       .  S
C671        C672   1.216       .  T
C673        C674   1.208       .  T
C674        C675   1.416       .  S
C675        C676   1.208       .  T
C677        C678   1.210       .  T
C678        C679   1.419       .  S
C679        C680   1.210       .  T
C681        C682   1.206       .  T
C682       C1371   1.412       .  S
C683        C684   1.206       .  T
C683       C1370   1.412   1_554  S
C685        C686   1.209       .  T
C686        C687   1.418       .  S
C687        C688   1.209       .  T
N689        C693   1.356       .  A
N689        C690   1.345       .  A
N689       C1361   1.409       .  S
C690        C691   1.385       .  A
C690       C1373   1.451       .  S
C691        C692   1.394       .  A
C691       C1372   1.442       .  S
C692        C693   1.400       .  A
C692       C1360   1.457       .  S
C693       C1368   1.449       .  S
N694        C698   1.356       .  A
N694        C695   1.345       .  A
N694       C1353   1.410       .  S
C695        C696   1.383       .  A
C695       C1349   1.448       .  S
C696        C697   1.392       .  A
C696       C1369   1.442       .  S
C697        C698   1.400       .  A
C697       C1345   1.455       .  S
C698       C1365   1.449       .  S
N699        C703   1.351       .  A
N699       C1352   1.410       .  S
C700        C701   1.390       .  A
C700       C1376   1.451       .  S
C701        C702   1.399       .  A
C701       C1341   1.446       .  S
C702       C1336   1.456       .  S
C703       C1337   1.445       .  S
N704        C708   1.352       .  A
N704        C705   1.345       .  A
N704       C1356   1.410       .  S
C705        C706   1.390       .  A
C705       C1364   1.448       .  S
C706        C707   1.398       .  A
C706       C1344   1.446       .  S
C707        C708   1.395       .  A
C707       C1332   1.456       .  S
C708       C1340   1.445       .  S
N709        C713   1.357       .  A
N709        C710   1.345       .  A
N709       C1316   1.411       .  S
C710        C711   1.385       .  A
C710       C1328   1.451       .  S
C711        C712   1.394       .  A
C711       C1324   1.441       .  S
C712        C713   1.402       .  A
C712       C1312   1.460       .  S
C713       C1320   1.449       .  S
N714        C718   1.352       .  A
N714        C715   1.346       .  A
N714       C1301   1.411       .  S
C715        C716   1.391       .  A
C715       C1305   1.449       .  S
C716        C717   1.399       .  A
C716       C1317   1.447       .  S
C717        C718   1.395       .  A
C717       C1297   1.458       .  S
C718       C1321   1.443       .  S
N719        C723   1.352       .  A
N719       C1304   1.411       .  S
C720        C721   1.391       .  A
C720       C1325   1.450       .  S
C721       C1293   1.447       .  S
C722        C723   1.395   1_554  A
C722       C1288   1.457       .  S
C723       C1289   1.445       .  S
N724        C728   1.351       .  A
N724        C725   1.345       .  A
N724       C1308   1.410       .  S
C725        C726   1.392       .  A
C725       C1313   1.451       .  S
C726        C727   1.400       .  A
C726       C1296   1.447       .  S
C727        C728   1.395       .  A
C727       C1281   1.458       .  S
C728       C1292   1.444       .  S
N729        C733   1.352       .  A
N729        C730   1.345       .  A
N729       C1277   1.411       .  S
C730        C731   1.387       .  A
C730       C1265   1.445       .  S
C731        C732   1.396       .  A
C731       C1272   1.446       .  S
C732        C733   1.396       .  A
C732       C1261   1.453       .  S
C733       C1273   1.445       .  S
N734        C738   1.352       .  A
N734        C735   1.346       .  A
N734       C1253   1.410       .  S
C735        C736   1.388       .  A
C735       C1260   1.447       .  S
C736        C737   1.396       .  A
C736       C1269   1.446       .  S
C737        C738   1.395       .  A
C737       C1252   1.453       .  S
C738       C1276   1.445       .  S
N739        C743   1.351       .  A
N739       C1256   1.410       .  S
C740        C741   1.391       .  A
C740       C1280   1.449       .  S
C741        C742   1.399       .  A
C741       C1245   1.447       .  S
C742       C1240   1.456       .  S
C743       C1241   1.445       .  S
N744        C748   1.350       .  A
N744        C745   1.345       .  A
N744       C1257   1.409       .  S
C745        C746   1.389       .  A
C745       C1268   1.445       .  S
C746        C747   1.397       .  A
C746       C1248   1.447       .  S
C747        C748   1.393       .  A
C747       C1233   1.451       .  S
C748       C1244   1.445       .  S
N749        C753   1.352       .  A
N749        N750   1.323       .  A
N749       Cu757   2.098       .  S
N750        C751   1.344       .  A
N750       Cu756   2.072       .  S
C751        C752   1.378       .  A
C751        H754   1.082       .  S
C752        C753   1.387       .  A
C752       C1231   1.447       .  S
C753        H755   1.082       .  S
Cu756       N759   2.072       .  S
Cu757       N767   2.099       .  S
Cu758       N760   2.106       .  S
Cu758       N766   2.107       .  S
N759        C763   1.345       .  A
N759        N760   1.323       .  A
N760        C761   1.353       .  A
C761        C762   1.389       .  A
C761        H764   1.082       .  S
C762        C763   1.379       .  A
C762       C1229   1.450       .  S
C763        H765   1.082       .  S
N766        C770   1.351       .  A
N766        N767   1.327       .  A
N767        C768   1.350       .  A
C768        C769   1.383       .  A
C768        H771   1.082       .  S
C769        C770   1.385       .  A
C769       C1225   1.454       .  S
C770        H772   1.082       .  S
N773        C777   1.353       .  A
N773        N774   1.323       .  A
N773       Cu781   2.103       .  S
N774        C775   1.344       .  A
N774       Cu780   2.070       .  S
C775        C776   1.378       .  A
C775        H778   1.082       .  S
C776        C777   1.388       .  A
C776       C1221   1.447       .  S
C777        H779   1.082       .  S
Cu780       N783   2.070       .  S
Cu781       N791   2.105       .  S
Cu782       N784   2.096       .  S
Cu782       N790   2.097       .  S
N783        C787   1.344       .  A
N783        N784   1.322       .  A
N784        C785   1.352       .  A
C785        C786   1.388       .  A
C785        H788   1.082       .  S
C786        C787   1.378       .  A
C786       C1223   1.447       .  S
C787        H789   1.082       .  S
N790        C794   1.348       .  A
N790        N791   1.327       .  A
N791        C792   1.351       .  A
C792        C793   1.385       .  A
C792        H795   1.082       .  S
C793        C794   1.382       .  A
C793       C1220   1.452       .  S
C794        H796   1.082       .  S
N797        N798   1.323       .  A
N797       Cu805   2.098       .  S
N798        C799   1.344       .  A
N798       Cu804   2.071       .  S
C799        H802   1.082       .  S
C800        C801   1.387       .  A
C800       C1232   1.447       .  S
C801        H803   1.082       .  S
Cu804       N807   2.071       .  S
Cu805       N815   2.100       .  S
Cu806       N808   2.107       .  S
Cu806       N814   2.108       .  S
N807        C811   1.344       .  A
N807        N808   1.323       .  A
N808        C809   1.353       .  A
C809        C810   1.389       .  A
C809        H812   1.082       .  S
C810        C811   1.378       .  A
C810       C1215   1.449       .  S
C811        H813   1.082       .  S
N814        C818   1.351       .  A
N814        N815   1.327       .  A
N815        C816   1.350       .  A
C816        C817   1.383       .  A
C816        H819   1.082       .  S
C817        C818   1.385       .  A
C817       C1333   1.454       .  S
C818        H820   1.082       .  S
N821        C825   1.352       .  A
N821        N822   1.323       .  A
N821       Cu829   2.100       .  S
N822        C823   1.344       .  A
N822       Cu828   2.074       .  S
C823        C824   1.379       .  A
C823        H826   1.082       .  S
C824        C825   1.387       .  A
C824       C1224   1.447       .  S
C825        H827   1.082       .  S
Cu828       N831   2.074       .  S
Cu829       N839   2.101       .  S
Cu830       N832   2.105       .  S
Cu830       N838   2.105       .  S
N831        C835   1.345       .  A
N831        N832   1.323       .  A
N832        C833   1.353       .  A
C833        C834   1.389       .  A
C833        H836   1.082       .  S
C834        C835   1.379       .  A
C834       C1213   1.450       .  S
C835        H837   1.082       .  S
N838        C842   1.350       .  A
N838        N839   1.327       .  A
N839        C840   1.350       .  A
C840        C841   1.384       .  A
C840        H843   1.082       .  S
C841        C842   1.384       .  A
C841       C1329   1.453       .  S
C842        H844   1.082       .  S
N845        N846   1.323       .  A
N845       Cu853   2.107       .  S
N846        C847   1.345       .  A
N846       Cu852   2.073       .  S
C847        H850   1.082       .  S
C848        C849   1.388       .  A
C848       C1230   1.450       .  S
C849        H851   1.082       .  S
Cu852       N855   2.073       .  S
Cu853       N863   2.108       .  S
Cu854       N856   2.096       .  S
Cu854       N862   2.097       .  S
N855        C859   1.344       .  A
N855        N856   1.323       .  A
N856        C857   1.352       .  A
C857        C858   1.387       .  A
C857        H860   1.082       .  S
C858        C859   1.379       .  A
C858       C1212   1.446       .  S
C859        H861   1.082       .  S
N862        C866   1.349       .  A
N862        N863   1.327       .  A
N863        C864   1.351       .  A
C864        C865   1.386       .  A
C864        H867   1.082       .  S
C865        C866   1.382       .  A
C865       C1237   1.453       .  S
C866        H868   1.082       .  S
N869        C873   1.352       .  A
N869        N870   1.323       .  A
N869       Cu877   2.098       .  S
N870        C871   1.344       .  A
N870       Cu876   2.072       .  S
C871        C872   1.379       .  A
C871        H874   1.082       .  S
C872        C873   1.387       .  A
C872       C1222   1.448       .  S
C873        H875   1.082       .  S
Cu876       N879   2.072       .  S
Cu877       N887   2.099       .  S
Cu878       N880   2.096       .  S
Cu878       N886   2.097       .  S
N879        C883   1.344       .  A
N879        N880   1.322       .  A
N880        C881   1.353       .  A
C881        C882   1.388       .  A
C881        H884   1.082       .  S
C882        C883   1.378       .  A
C882       C1210   1.447       .  S
C883        H885   1.082       .  S
N886        C890   1.348       .  A
N886        N887   1.327       .  A
N887        C888   1.350       .  A
C888        C889   1.383       .  A
C888        H891   1.082       .  S
C889        C890   1.381       .  A
C889       C1236   1.448       .  S
C890        H892   1.082       .  S
N893        C897   1.352       .  A
N893        N894   1.323       .  A
N893       Cu901   2.101       .  S
N894        C895   1.344       .  A
N894       Cu900   2.073       .  S
C895        C896   1.378       .  A
C895        H898   1.082       .  S
C896        C897   1.387       .  A
C896       C1211   1.446       .  S
C897        H899   1.082       .  S
Cu900       N903   2.073       .  S
Cu901       N911   2.102       .  S
Cu902       N904   2.103       .  S
Cu902       N910   2.104       .  S
N903        C907   1.345       .  A
N903        N904   1.323       .  A
N904        C905   1.352       .  A
C905        C906   1.388       .  A
C905        H908   1.082       .  S
C906        C907   1.379       .  A
C906       C1216   1.449       .  S
C907        H909   1.082       .  S
N910        C914   1.350       .  A
N910        N911   1.327       .  A
N911        C912   1.351       .  A
C912        C913   1.385       .  A
C912        H915   1.082       .  S
C913        C914   1.384       .  A
C913       C1285   1.454       .  S
C914        H916   1.082       .  S
N917        C921   1.353       .  A
N917        N918   1.324       .  A
N917       Cu925   2.107       .  S
N918        C919   1.345       .  A
N918       Cu924   2.076       .  S
C919        C920   1.379       .  A
C919        H922   1.082       .  S
C920        C921   1.389       .  A
C920       C1214   1.450       .  S
C921        H923   1.082       .  S
Cu924       N927   2.076       .  S
Cu925       N935   2.108       .  S
Cu926       N928   2.099       .  S
Cu926       N934   2.100       .  S
N927        C931   1.345       .  A
N927        N928   1.323       .  A
N928        C929   1.352       .  A
C929        C930   1.387       .  A
C929        H932   1.082       .  S
C930        C931   1.379       .  A
C930       C1209   1.448       .  S
C931        H933   1.082       .  S
N934        C938   1.350       .  A
N934        N935   1.327       .  A
N935        C936   1.351       .  A
C936        C937   1.385       .  A
C936        H939   1.082       .  S
C937        C938   1.384       .  A
C937       C1284   1.455       .  S
C938        H940   1.082       .  S
N941        C945   1.352       .  A
N941        N942   1.323       .  A
N941       Cu949   2.102       .  S
N942        C943   1.344       .  A
N942       Cu948   2.073       .  S
C943        C944   1.379       .  A
C943        H946   1.082       .  S
C944        C945   1.387       .  A
C944       C1205   1.448       .  S
C945        H947   1.082       .  S
Cu948       N951   2.073       .  S
Cu949       N959   2.103       .  S
Cu950       N952   2.095       .  S
Cu950       N958   2.096       .  S
N951        C955   1.345       .  A
N951        N952   1.323       .  A
N952        C953   1.352       .  A
C953        C954   1.387       .  A
C953        H956   1.082       .  S
C954        C955   1.379       .  A
C954       C1208   1.447       .  S
C955        H957   1.082       .  S
N958        C962   1.349       .  A
N958        N959   1.327       .  A
N959        C960   1.351       .  A
C960        C961   1.385       .  A
C960        H963   1.082       .  S
C961        C962   1.382       .  A
C961       C1264   1.451       .  S
C962        H964   1.082       .  S
N965        C969   1.353       .  A
N965        N966   1.323       .  A
N965       Cu973   2.102       .  S
N966        C967   1.345       .  A
N966       Cu972   2.073       .  S
C967        C968   1.379       .  A
C967        H970   1.082       .  S
C968        C969   1.388       .  A
C968       C1204   1.449       .  S
C969        H971   1.082       .  S
Cu972       N975   2.073       .  S
Cu973       N983   2.102       .  S
Cu974       N976   2.099       .  S
Cu974       N982   2.101       .  S
N975        C979   1.344       .  A
N975        N976   1.323       .  A
N976        C977   1.352       .  A
C977        C978   1.388       .  A
C977        H980   1.082       .  S
C978        C979   1.379       .  A
C978       C1202   1.448       .  S
C979        H981   1.082       .  S
N982        C986   1.350       .  A
N982        N983   1.327       .  A
N983        C984   1.350       .  A
C984        C985   1.383       .  A
C984        H987   1.082       .  S
C985        C986   1.383       .  A
C985       C1249   1.451       .  S
C986        H988   1.082       .  S
N989        C993   1.354       .  A
N989        N990   1.323       .  A
N989       Cu997   2.110       .  S
N990        C991   1.345       .  A
N990       Cu996   2.073       .  S
C991        C992   1.379       .  A
C991        H994   1.082       .  S
C992        C993   1.389       .  A
C992       C1199   1.451       .  S
C993        H995   1.082       .  S
Cu996       N999   2.073       .  S
Cu997      N1007   2.112       .  S
Cu998      N1000   2.102       .  S
Cu998      N1006   2.104       .  S
N999       C1003   1.345       .  A
N999       N1000   1.323       .  A
N1000      C1001   1.352       .  A
C1001      C1002   1.388       .  A
C1001      H1004   1.082       .  S
C1002      C1003   1.379       .  A
C1002      C1206   1.448   1_565  S
C1003      H1005   1.082       .  S
N1006      C1010   1.351       .  A
N1006      N1007   1.327       .  A
N1007      C1008   1.352       .  A
C1008      C1009   1.386       .  A
C1008      H1011   1.082       .  S
C1009      C1010   1.385       .  A
C1009      C1309   1.457       .  S
C1010      H1012   1.082       .  S
N1013      C1017   1.354       .  A
N1013      N1014   1.323       .  A
N1013     Cu1021   2.110       .  S
N1014      C1015   1.345       .  A
N1014     Cu1020   2.073       .  S
C1015      C1016   1.379       .  A
C1015      H1018   1.082       .  S
C1016      C1017   1.390       .  A
C1016      C1197   1.452       .  S
C1017      H1019   1.082       .  S
Cu1020     N1023   2.072       .  S
Cu1021     N1031   2.111       .  S
Cu1022     N1024   2.102       .  S
Cu1022     N1030   2.103       .  S
N1023      C1027   1.344       .  A
N1023      N1024   1.323       .  A
N1024      C1025   1.353       .  A
C1025      C1026   1.388       .  A
C1025      H1028   1.082       .  S
C1026      C1027   1.378       .  A
C1026      C1201   1.448   1_565  S
C1027      H1029   1.082       .  S
N1030      C1034   1.351       .  A
N1030      N1031   1.327       .  A
N1031      C1032   1.351       .  A
C1032      C1033   1.385       .  A
C1032      H1035   1.082       .  S
C1033      C1034   1.384       .  A
C1033      C1300   1.456       .  S
C1034      H1036   1.082       .  S
N1037      C1041   1.353       .  A
N1037      N1038   1.323       .  A
N1037     Cu1045   2.106       .  S
N1038      C1039   1.345       .  A
N1038     Cu1044   2.074       .  S
C1039      C1040   1.379       .  A
C1039      H1042   1.082       .  S
C1040      C1041   1.389       .  A
C1040      C1200   1.451       .  S
C1041      H1043   1.082       .  S
Cu1044     N1047   2.074       .  S
Cu1045     N1055   2.107       .  S
Cu1046     N1048   2.103       .  S
Cu1046     N1054   2.104       .  S
N1047      C1051   1.345       .  A
N1047      N1048   1.323       .  A
N1048      C1049   1.353       .  A
C1049      C1050   1.388       .  A
C1049      H1052   1.082       .  S
C1050      C1051   1.379       .  A
C1050      C1195   1.450   1_565  S
C1051      H1053   1.082       .  S
N1054      C1058   1.351       .  A
N1054      N1055   1.327       .  A
N1055      C1056   1.351       .  A
C1056      C1057   1.385       .  A
C1056      H1059   1.082       .  S
C1057      C1058   1.384       .  A
C1057      C1357   1.454       .  S
C1058      H1060   1.082       .  S
N1061      C1065   1.354       .  A
N1061      N1062   1.323       .  A
N1061     Cu1069   2.109       .  S
N1062      C1063   1.345       .  A
N1062     Cu1068   2.072       .  S
C1063      C1064   1.379       .  A
C1063      H1066   1.082       .  S
C1064      C1065   1.390       .  A
C1064      C1198   1.452       .  S
C1065      H1067   1.082       .  S
Cu1068     N1071   2.071       .  S
Cu1069     N1079   2.110       .  S
Cu1070     N1072   2.098       .  S
Cu1070     N1078   2.099       .  S
N1071      C1075   1.344       .  A
N1071      N1072   1.322       .  A
N1072      C1073   1.353       .  A
C1073      C1074   1.388       .  A
C1073      H1076   1.082       .  S
C1074      C1075   1.378       .  A
C1074      C1193   1.447   1_565  S
C1075      H1077   1.082       .  S
N1078      C1082   1.349       .  A
N1078      N1079   1.328       .  A
N1079      C1080   1.351       .  A
C1080      C1081   1.385       .  A
C1080      H1083   1.082       .  S
C1081      C1082   1.382       .  A
C1081      C1348   1.453       .  S
C1082      H1084   1.082       .  S
N1085      C1089   1.352       .  A
N1085      N1086   1.323       .  A
N1085     Cu1093   2.101       .  S
N1086      C1087   1.344       .  A
N1086     Cu1092   2.072       .  S
C1087      C1088   1.378       .  A
C1087      H1090   1.082       .  S
C1088      C1089   1.387       .  A
C1088      C1207   1.447       .  S
C1089      H1091   1.082       .  S
Cu1092     N1095   2.072       .  S
Cu1093     N1103   2.102       .  S
Cu1094     N1096   2.105       .  S
Cu1094     N1102   2.106       .  S
N1095      C1099   1.345       .  A
N1095      N1096   1.323       .  A
N1096      C1097   1.353       .  A
C1097      C1098   1.388       .  A
C1097      H1100   1.082       .  S
C1098      C1099   1.379       .  A
C1098      C1196   1.450       .  S
C1099      H1101   1.082       .  S
N1102      C1106   1.350       .  A
N1102      N1103   1.327       .  A
N1103      C1104   1.350       .  A
C1104      C1105   1.384       .  A
C1104      H1107   1.082       .  S
C1105      C1106   1.384       .  A
C1105      C1192   1.454       .  S
C1106      H1108   1.082       .  S
N1109      C1113   1.352       .  A
N1109      N1110   1.323       .  A
N1109     Cu1117   2.099       .  S
N1110      C1111   1.345       .  A
N1110     Cu1116   2.077       .  S
C1111      C1112   1.380       .  A
C1111      H1114   1.082       .  S
C1112      C1113   1.387       .  A
C1112      C1194   1.448       .  S
C1113      H1115   1.082       .  S
Cu1116     N1119   2.077       .  S
Cu1117     N1127   2.100       .  S
Cu1118     N1120   2.102       .  S
Cu1118     N1126   2.103       .  S
N1119      C1123   1.346       .  A
N1119      N1120   1.323       .  A
N1120      C1121   1.352       .  A
C1121      C1122   1.387       .  A
C1121      H1124   1.082       .  S
C1122      C1123   1.380       .  A
C1122      C1203   1.449       .  S
C1123      H1125   1.082       .  S
N1126      C1130   1.350       .  A
N1126      N1127   1.326       .  A
N1127      C1128   1.350       .  A
C1128      C1129   1.384       .  A
C1128      H1131   1.082       .  S
C1129      C1130   1.385       .  A
C1129      C1185   1.454       .  S
C1130      H1132   1.082       .  S
N1133      C1137   1.352       .  A
N1133      C1134   1.345       .  A
N1133      C1184   1.412       .  S
C1134      C1135   1.389       .  A
C1134      C1172   1.446       .  S
C1135      C1136   1.398       .  A
C1135      C1173   1.447       .  S
C1136      C1137   1.396       .  A
C1136      C1189   1.457       .  S
C1137      C1177   1.444       .  S
N1138      C1142   1.356       .  A
N1138      C1139   1.346       .  A
N1138      C1165   1.411       .  S
C1139      C1140   1.384       .  A
C1139      C1164   1.449       .  S
C1140      C1141   1.393       .  A
C1140      C1180   1.442       .  S
C1141      C1142   1.400       .  A
C1141      C1188   1.456       .  S
C1142      C1176   1.448       .  S
N1143      C1147   1.358       .  A
N1143      C1144   1.346       .  A
N1143      C1181   1.411       .  S
C1145      C1156   1.441       .  S
C1146      C1147   1.402       .  A
C1146      C1228   1.456       .  S
C1147      C1160   1.451       .  S
N1148      C1152   1.351       .  A
N1148      C1149   1.345       .  A
N1148      C1168   1.411       .  S
C1149      C1150   1.390       .  A
C1149      C1169   1.445       .  S
C1150      C1151   1.399       .  A
C1150      C1157   1.449       .  S
C1151      C1152   1.393       .  A
C1151      C1217   1.454       .  S
C1152      C1153   1.443       .  S
C1153      C1154   1.206       .  T
C1154      C1155   1.412       .  S
C1155      C1156   1.205       .  T
C1157      C1158   1.211       .  T
C1158      C1159   1.421       .  S
C1159      C1160   1.211       .  T
C1161      C1162   1.208       .  T
C1162      C1163   1.415       .  S
C1163      C1164   1.208       .  T
C1165      C1166   1.209       .  T
C1166      C1167   1.418       .  S
C1167      C1168   1.209       .  T
C1169      C1170   1.207       .  T
C1170      C1171   1.414       .  S
C1171      C1172   1.207       .  T
C1173      C1174   1.210       .  T
C1174      C1175   1.419       .  S
C1175      C1176   1.210       .  T
C1177      C1178   1.206       .  T
C1179      C1180   1.206       .  T
C1181      C1182   1.210       .  T
C1182      C1183   1.419       .  S
C1183      C1184   1.210       .  T
C1185      C1186   1.216       .  T
C1186      C1187   1.428       .  S
C1187      C1188   1.215       .  T
C1189      C1190   1.215       .  T
C1190      C1191   1.428       .  S
C1191      C1192   1.216       .  T
C1193      C1194   1.212       .  T
C1195      C1196   1.214       .  T
C1197      C1198   1.215   1_655  T
C1199      C1200   1.214   1_655  T
C1201      C1202   1.212       .  T
C1203      C1204   1.213   1_455  T
C1205      C1206   1.212       .  T
C1207      C1208   1.212   1_455  T
C1209      C1210   1.212       .  T
C1211      C1212   1.211       .  T
C1213      C1214   1.214       .  T
C1215      C1216   1.213       .  T
C1217      C1218   1.214       .  T
C1218      C1219   1.426       .  S
C1219      C1220   1.214       .  T
C1221      C1222   1.212       .  T
C1223      C1224   1.212       .  T
C1225      C1226   1.216       .  T
C1226      C1227   1.428       .  S
C1227      C1228   1.215       .  T
C1229      C1230   1.214       .  T
C1231      C1232   1.212       .  T
C1233      C1234   1.212       .  T
C1234      C1235   1.422       .  S
C1235      C1236   1.212       .  T
C1237      C1238   1.215       .  T
C1238      C1239   1.428       .  S
C1241      C1242   1.207       .  T
C1242      C1243   1.414       .  S
C1243      C1244   1.207       .  T
C1245      C1246   1.210       .  T
C1246      C1247   1.419       .  S
C1247      C1248   1.210       .  T
C1249      C1250   1.214       .  T
C1250      C1251   1.425       .  S
C1251      C1252   1.214       .  T
C1253      C1254   1.208       .  T
C1254      C1255   1.416       .  S
C1255      C1256   1.208       .  T
C1257      C1258   1.207       .  T
C1258      C1259   1.415       .  S
C1259      C1260   1.207       .  T
C1261      C1262   1.214       .  T
C1262      C1263   1.425       .  S
C1263      C1264   1.214       .  T
C1265      C1266   1.206       .  T
C1266      C1267   1.413       .  S
C1267      C1268   1.206       .  T
C1269      C1270   1.209       .  T
C1270      C1271   1.417       .  S
C1271      C1272   1.209       .  T
C1273      C1274   1.207       .  T
C1275      C1276   1.207       .  T
C1277      C1278   1.209       .  T
C1278      C1279   1.417       .  S
C1279      C1280   1.209       .  T
C1281      C1282   1.216       .  T
C1282      C1283   1.429       .  S
C1283      C1284   1.216       .  T
C1285      C1286   1.216       .  T
C1286      C1287   1.429       .  S
C1287      C1288   1.216   1_556  T
C1289      C1290   1.207       .  T
C1290      C1291   1.414       .  S
C1291      C1292   1.207       .  T
C1293      C1294   1.210       .  T
C1294      C1295   1.419       .  S
C1295      C1296   1.210       .  T
C1297      C1298   1.216       .  T
C1298      C1299   1.430       .  S
C1299      C1300   1.217       .  T
C1301      C1302   1.209       .  T
C1302      C1303   1.418       .  S
C1303      C1304   1.209       .  T
C1305      C1306   1.208       .  T
C1306      C1307   1.417       .  S
C1307      C1308   1.208       .  T
C1309      C1310   1.218       .  T
C1310      C1311   1.431       .  S
C1311      C1312   1.217       .  T
C1313      C1314   1.210       .  T
C1314      C1315   1.419       .  S
C1315      C1316   1.210       .  T
C1317      C1318   1.210       .  T
C1318      C1319   1.419       .  S
C1319      C1320   1.210       .  T
C1321      C1322   1.206       .  T
C1323      C1324   1.206       .  T
C1325      C1326   1.209       .  T
C1326      C1327   1.418       .  S
C1327      C1328   1.209       .  T
C1329      C1330   1.215       .  T
C1330      C1331   1.427       .  S
C1331      C1332   1.215       .  T
C1333      C1334   1.216       .  T
C1334      C1335   1.428       .  S
C1337      C1338   1.207       .  T
C1338      C1339   1.414       .  S
C1339      C1340   1.207       .  T
C1341      C1342   1.209       .  T
C1342      C1343   1.418       .  S
C1343      C1344   1.209       .  T
C1345      C1346   1.215       .  T
C1346      C1347   1.427       .  S
C1347      C1348   1.215       .  T
C1349      C1350   1.208       .  T
C1350      C1351   1.415       .  S
C1351      C1352   1.208       .  T
C1353      C1354   1.208       .  T
C1354      C1355   1.416       .  S
C1355      C1356   1.208       .  T
C1357      C1358   1.216       .  T
C1358      C1359   1.428       .  S
C1359      C1360   1.216       .  T
C1361      C1362   1.208       .  T
C1362      C1363   1.416       .  S
C1363      C1364   1.208       .  T
C1365      C1366   1.210       .  T
C1366      C1367   1.419       .  S
C1367      C1368   1.210       .  T
C1369      C1370   1.206       .  T
C1371      C1372   1.206       .  T
C1373      C1374   1.209       .  T
C1374      C1375   1.418       .  S
C1375      C1376   1.209       .  T
