geometry optimzed in LAMMPS
_audit_creation_date              2020-12-01 
_audit_creation_method            'lammps2cif' 
_symmetry_space_group_name_H-M    'P1' 
_symmetry_Int_Tables_number       1 
_symmetry_cell_setting            triclinic 
loop_ 
_symmetry_equiv_pos_as_xyz 
  x,y,z 
_cell_length_a                    36.25164535 
_cell_length_b                    33.80319318984961 
_cell_length_c                    58.779062338758294 
_cell_angle_alpha                 88.87650822061451 
_cell_angle_beta                  88.77141226153508 
_cell_angle_gamma                 119.20510409281843 
loop_ 
_atom_site_label 
_atom_site_type_symbol 
_atom_site_fract_x 
_atom_site_fract_y 
_atom_site_fract_z 
_atom_site_charge 
C1          C  0.09387617  0.18425344  0.09649934     0.80100
N2          N  0.05597326  0.18319520  0.09665971    -0.78200
C3          C  0.52038936  0.14458043  0.09091884     0.82600
N4          N  0.52303718  0.10872108  0.08322302    -0.78100
C5          C  0.06234290  0.11196607  0.08090022     0.82700
N6          N  0.09729095  0.14862542  0.08847167    -0.79900
C7          C  0.37969958  0.37227805  0.07137211     0.80100
N8          N  0.34781038  0.37151903  0.08466308    -0.78200
C9          C  0.32520569  0.33556674  0.09976121     0.82600
N10         N  0.33425532  0.30121528  0.10115453    -0.78100
C11         C  0.36509659  0.30180505  0.08771133     0.82700
N12         N  0.38780665  0.33720067  0.07309123    -0.79900
C13         C  0.14773276  0.47658541  0.05967161     0.80100
N14         N  0.19193585  0.00995718  0.05722177    -0.78200
C15         C  0.22071174  0.00635003  0.07004889     0.82600
N16         N  0.20622071  0.47191793  0.08558512    -0.78100
C17         C  0.16485141  0.44113263  0.08923784     0.82700
N18         N  0.13516944  0.44339188  0.07636645    -0.79900
C19         C  0.40984399  0.14567779  0.08509298     0.80100
N20         N  0.37378471  0.10805220  0.07952257    -0.78200
C21         C  0.33810650  0.11078541  0.07634795     0.82600
N22         N  0.33845030  0.15064656  0.07893974    -0.78100
C23         C  0.37444808  0.18796988  0.08448632     0.82700
N24         N  0.41020303  0.18561626  0.08750614    -0.79900
C25         C  0.37267156  0.07752853  0.91986562     0.80100
N26         N  0.33262193  0.04295548  0.92379617    -0.78200
C27         C  0.32754042  0.51339329  0.93791976     0.82600
N28         N  0.35868316  0.51185414  0.94904143    -0.78100
C29         C  0.39656296  0.04319103  0.94704510     0.82700
N30         N  0.40548132  0.07674737  0.93082267    -0.79900
C31         C  0.15748165  0.11929470  0.92971855     0.80100
N32         N  0.15779016  0.15969873  0.92956827    -0.78200
C33         C  0.18943166  0.19673176  0.91861947     0.82600
N34         N  0.22084651  0.19317077  0.90754585    -0.78100
C35         C  0.22058558  0.15272850  0.90734403     0.82700
N36         N  0.18883176  0.11564581  0.91848258    -0.79900
C37         C  0.18872157  0.31783348  0.91929455     0.80100
N38         N  0.22311666  0.35519432  0.92681150    -0.78200
C39         C  0.22313827  0.39539364  0.92738592     0.82600
N40         N  0.18962055  0.39852134  0.92031279    -0.78100
C41         C  0.15556255  0.36188356  0.91279468     0.82700
N42         N  0.15467555  0.32115485  0.91230001    -0.79900
C43         C  0.48281696  0.33575735  0.89067691     0.80100
N44         N  0.02379710  0.34349938  0.88874210    -0.78200
C45         C  0.05389618  0.37658577  0.90054052     0.82600
N46         N  0.04424462  0.40350020  0.91328907    -0.78100
C47         C  0.00406300  0.39700048  0.91403392     0.82700
N48         N  0.47272914  0.36178403  0.90407498    -0.79900
Zr49       Zr  0.01976838  0.47410947  0.04403119     2.17500
O50         O  0.50979449  0.43363923  0.08084453    -0.51400
O51         O  0.03770061  0.03589645  0.07217585    -0.74600
O52         O  0.07904247  0.46365506  0.05364952    -0.81400
O53         O  0.39786379  0.42968028  0.04151207    -0.83200
O54         O  0.13308394  0.00536783  0.02689275    -0.78800
O55         O  0.44903567  0.42263821  0.05988472    -0.90400
O56         O  0.08599909  0.08904955  0.04927620    -0.76400
O57         O  0.07786048  0.04340109  0.02677059    -0.85900
O58         O  0.49227833  0.02523988  0.03598058    -0.85600
O59         O  0.04280765  0.44779120  0.01159640    -0.72300
O60         O  0.46348934  0.43381341  0.01970720    -0.84500
Zr61       Zr  0.01738454  0.02238468  0.95829508     2.26400
Zr62       Zr  0.10078817  0.01916395  0.99410451     2.06300
Zr63       Zr  0.43646235  0.48293841  0.00895975     2.10000
Zr64       Zr  0.04699511  0.08900416  0.01656504     1.78800
O65         O  0.36610204  0.42834110  0.99708877    -0.93300
O66         O  0.09009103  0.16774774  0.02715793    -0.41100
O67         O  0.49362079  0.05074474  0.99090714    -0.77700
O68         O  0.07254213  0.06791249  0.98399390    -0.96400
O69         O  0.04282072  0.47219959  0.96801688    -0.89700
O70         O  0.45917013  0.45799935  0.97612742    -0.92500
C71         C  0.06515414  0.07724842  0.06807883     1.01200
C72         C  0.41024231  0.41181210  0.05710745     1.14100
C73         C  0.11690752  0.48053724  0.04553781     1.04900
O74         O  0.17094176  0.08321598  0.99897327    -0.94700
O75         O  0.13483238  0.06104512  0.95822629    -0.90400
O76         O  0.08632212  0.07481148  0.94102069    -0.83600
C77         C  0.12405557  0.08131583  0.94316073     1.11600
O78         O  0.47722134  0.34488031  0.01130457    -0.96700
Zr79       Zr  0.98552699  0.40701826  0.98660000     1.88900
O80         O  0.01429198  0.46380719  0.93183429    -0.73300
O81         O  0.12350489  0.46756741  0.97567094    -0.52600
O82         O  0.02174121  0.36919388  0.97006758    -0.97300
O83         O  0.41216739  0.34925543  0.98962566    -0.54500
O84         O  0.96763487  0.39564864  0.94734467    -0.73800
C85         C  0.99317932  0.42033911  0.93137468     0.98500
O86         O  0.00657943  0.04574864  0.92055229    -0.62700
O87         O  0.41107000  0.02677977  0.03193451    -0.57500
O88         O  0.46353298  0.04604762  0.94935303    -0.94100
O89         O  0.41646450  0.51635487  0.97785808    -0.92600
O90         O  0.49344787  0.10646700  0.03108181    -0.92900
O91         O  0.07638284  0.15379611  0.98964216    -0.91700
C92         C  0.42995531  0.53667095  0.95823757     1.17300
H93         H  0.48077082  0.03220494  0.04932629     0.33300
H94         H  0.09475762  0.09668142  0.97811627     0.44100
H95         H  0.43625113  0.44374170  0.96578602     0.37700
H96         H  0.05336237  0.42769398  0.01622798     0.34100
H97         H  0.07642236  0.17081376  0.04126111     0.25900
H98         H  0.12024988  0.47018836  0.95911257     0.31900
H99         H  0.05205182  0.38969207  0.97261602     0.37800
H100        H  0.99762128  0.13282755  0.02309091     0.32200
H101        H  0.37908746  0.51387271  0.02278121     0.31100
H102        H  0.34648401  0.43344907  0.00698873     0.32800
H103        H  0.39716232  0.36060580  0.97987405     0.31800
H104        H  0.05242384  0.14869329  0.98005309     0.35800
H105        H  0.02671725  0.07867667  0.91887117     0.28500
H106        H  0.53399563  0.45329526  0.09022175     0.32700
H107        H  0.46356556  0.31806972  0.00168121     0.35600
H108        H  0.38202916  0.00396659  0.03710994     0.28200
H109        H  0.01755348  0.03173944  0.90962284     0.41100
H110        H  0.16559899  0.10603303  0.00644603     0.31100
H111        H  0.11722537  0.17057161  0.03204277     0.38700
H112        H  0.40211984  0.35005204  0.00531882     0.30600
H113        H  0.15446587  0.48406924  0.97760353     0.30600
H114        H  0.51382880  0.40747665  0.07721405     0.30900
C115        C  0.33706527  0.28620962  0.74831406     0.80100
N116        N  0.37812241  0.31740690  0.74370515    -0.78200
C117        C  0.38832493  0.35289496  0.72911985     0.82600
N118        N  0.35777381  0.35766723  0.71916500    -0.78100
C119        C  0.31666491  0.32772780  0.72366770     0.82700
N120        N  0.30571339  0.29213332  0.73888537    -0.79900
C121        C  0.22395427  0.02973943  0.77659576     0.80100
N122        N  0.18310906  0.01709362  0.78127919    -0.78200
C123        C  0.15202974  0.98008906  0.77226508     0.82600
N124        N  0.16738999  0.45831910  0.75521328    -0.78100
C125        C  0.20836411  0.46806024  0.75221473     0.82700
N126        N  0.23423925  0.00480645  0.76248873    -0.79900
C127        C  0.05225176  0.23431356  0.73643978     0.80100
N128        N  0.05209069  0.19395582  0.73698421    -0.78200
C129        C  0.02184712  0.15788124  0.74930695     0.82600
N130        N  0.48949217  0.16175100  0.76203749    -0.78100
C131        C  0.48920555  0.20184757  0.76165305     0.82700
N132        N  0.02237550  0.23881154  0.74885868    -0.79900
C133        C  0.02016229  0.03574667  0.74975015     0.80100
N134        N  0.48953991  0.00131033  0.73965196    -0.78200
C135        C  0.49299045  0.46292756  0.74438837     0.82600
N136        N  0.02334726  0.46023102  0.74744209    -0.78100
C137        C  0.04950154  0.98969850  0.76021417     0.82700
N138        N  0.05053671  0.03046983  0.76043059    -0.79900
Zr139      Zr  0.35127433  0.16827381  0.78833707     2.17500
O140        O  0.35227174  0.15219476  0.74805831    -0.51400
O141        O  0.34496100  0.22619226  0.76481878    -0.74600
O142        O  0.29083169  0.09624447  0.77809022    -0.81400
O143        O  0.47153872  0.23590206  0.79154850    -0.83200
O144        O  0.24301351  0.07438031  0.80787047    -0.78800
O145        O  0.41867738  0.17735777  0.77359073    -0.90400
O146        O  0.31357951  0.25788556  0.78558446    -0.76400
O147        O  0.29860042  0.17713506  0.80911649    -0.85900
O148        O  0.38755656  0.24296350  0.80271426    -0.85600
O149        O  0.32511283  0.11060815  0.81877067    -0.72300
O150        O  0.40461196  0.16958532  0.81233495    -0.84500
Zr151      Zr  0.35963973  0.19554326  0.87834849     2.26400
Zr152      Zr  0.27333111  0.12123271  0.83987916     2.06300
Zr153      Zr  0.43942756  0.24334080  0.82715800     2.10000
Zr154      Zr  0.33489869  0.25158270  0.82347317     1.78800
O155        O  0.50341356  0.24347631  0.83921218    -0.93300
O156        O  0.26517819  0.24485267  0.82867919    -0.41100
O157        O  0.38725923  0.25293470  0.84803403    -0.77700
O158        O  0.30725806  0.19629083  0.85382136    -0.96400
O159        O  0.32569961  0.12139605  0.86394176    -0.89700
O160        O  0.41331584  0.18754178  0.85788799    -0.92500
C161        C  0.32915909  0.25288388  0.76692483     1.01200
C162        C  0.45789350  0.20617154  0.77606033     1.14100
C163        C  0.25493368  0.06943507  0.78796268     1.04900
O164        O  0.20639924  0.11845326  0.83212198    -0.94700
O165        O  0.23925730  0.12350721  0.87581776    -0.90400
O166        O  0.29141974  0.17657381  0.89668827    -0.83600
C167        C  0.25233847  0.14919620  0.89299853     1.11600
O168        O  0.38722906  0.06641802  0.81459433    -0.96700
Zr169      Zr  0.37884815  0.11394500  0.84266516     1.88900
O170        O  0.36717571  0.13861701  0.90225790    -0.73300
O171        O  0.23698110  0.04360559  0.85543054    -0.52600
O172        O  0.33074223  0.03325649  0.84999273    -0.97300
O173        O  0.45075067  0.12558409  0.84070005    -0.54500
O174        O  0.38994170  0.09842717  0.88134692    -0.73800
C175        C  0.37905060  0.10846373  0.90023785     0.98500
O176        O  0.36848863  0.22348345  0.91694912    -0.62700
O177        O  0.48131737  0.31960783  0.81041979    -0.57500
O178        O  0.41638320  0.27020071  0.88760369    -0.94100
O179        O  0.46548170  0.29356395  0.85840498    -0.92600
O180        O  0.38199775  0.32963640  0.81033811    -0.92900
O181        O  0.33673152  0.30722588  0.84981289    -0.91700
C182        C  0.45220482  0.29802119  0.87803753     1.17300
H183        H  0.40162872  0.26633504  0.79093776     0.33300
H184        H  0.28760894  0.20404542  0.86097389     0.44100
H185        H  0.43564560  0.19141156  0.86781268     0.37700
H186        H  0.31340270  0.08025959  0.81330764     0.34100
H187        H  0.26788822  0.27289824  0.82145064     0.25900
H188        H  0.24555689  0.04588660  0.87144241     0.31900
H189        H  0.31391302  0.03163346  0.86382062     0.37800
H190        H  0.36297497  0.34109000  0.80521186     0.32200
H191        H  0.47410974  0.33903619  0.81982440     0.31100
H192        H  0.02873324  0.27236306  0.82858276     0.32800
H193        H  0.46487947  0.14417967  0.85387749     0.31800
H194        H  0.33499201  0.29354105  0.86512298     0.35800
H195        H  0.35224353  0.23997608  0.91801764     0.28500
H196        H  0.32520631  0.14790458  0.74216943     0.32700
H197        H  0.39666426  0.04760631  0.82314022     0.35600
H198        H  0.51082671  0.32852553  0.81412769     0.28200
H199        H  0.35255771  0.19618948  0.92703950     0.41100
H200        H  0.21064103  0.13294241  0.81677718     0.31100
H201        H  0.24691216  0.22047786  0.81849130     0.38700
H202        H  0.46435425  0.14621678  0.82724875     0.30600
H203        H  0.20679303  0.03553062  0.85650532     0.30600
H204        H  0.35019986  0.12190942  0.74756598     0.30900
C205        C  0.12485875  0.16963553  0.56404719     0.80100
N206        N  0.12121359  0.20231259  0.57537283    -0.78200
C207        C  0.15650627  0.23864814  0.58288404     0.82600
N208        N  0.19481160  0.24174892  0.57927132    -0.78100
C209        C  0.19836751  0.20928937  0.56806289     0.82700
N210        N  0.16346177  0.17314722  0.56051423    -0.79900
C211        C  0.06449919  0.37831847  0.60437571     0.80100
N212        N  0.02341952  0.34511617  0.60490057    -0.78200
C213        C  0.99583908  0.34796680  0.59078748     0.82600
N214        N  0.00915192  0.38435132  0.57643176    -0.78100
C215        C  0.05011936  0.41783037  0.57571481     0.82700
N216        N  0.07828172  0.41467830  0.58947951    -0.79900
C217        C  0.32726786  0.47515065  0.59181400     0.80100
N218        N  0.32075350  0.51144964  0.59044109    -0.78200
C219        C  0.34355321  0.04475957  0.57801585     0.82600
N220        N  0.37378474  0.04479959  0.56431656    -0.78100
C221        C  0.38345039  0.51183856  0.56424582     0.82700
N222        N  0.35930059  0.47534907  0.57881076    -0.79900
C223        C  0.30786813  0.20725835  0.57381706     0.78300
N224        N  0.34440756  0.24485742  0.57873479    -0.78200
C225        C  0.37890632  0.24107668  0.58381457     0.82600
N226        N  0.37684064  0.19996172  0.58392905    -0.78100
C227        C  0.34020671  0.16253063  0.57914307     0.82700
N228        N  0.30571788  0.16612475  0.57408580    -0.79900
Zr229      Zr  0.19298233  0.34035319  0.71071981     2.17500
O230        O  0.18789019  0.31340657  0.75015038    -0.51400
O231        O  0.19921141  0.40034766  0.73601321    -0.74600
O232        O  0.25037332  0.32577100  0.72108094    -0.81400
O233        O  0.07354266  0.29294231  0.70782410    -0.83200
O234        O  0.29926676  0.35612715  0.69177740    -0.78800
O235        O  0.12324567  0.28005577  0.72399940    -0.90400
O236        O  0.23863779  0.46711281  0.71686260    -0.76400
O237        O  0.24943568  0.40479601  0.69071129    -0.85900
O238        O  0.16221955  0.38496120  0.69777264    -0.85600
O239        O  0.21674563  0.31147177  0.67960373    -0.72300
O240        O  0.13787029  0.29343559  0.68612287    -0.84500
Zr241      Zr  0.18840016  0.37408941  0.62191544     2.26400
Zr242      Zr  0.27192270  0.37661191  0.65887401     2.06300
Zr243      Zr  0.10829006  0.33872005  0.67285799     2.10000
Zr244      Zr  0.21826678  0.44883590  0.67799284     1.78800
O245        O  0.03495286  0.28008349  0.66972217    -0.93300
O246        O  0.29029555  0.51213277  0.67452624    -0.41100
O247        O  0.16376521  0.40319038  0.65248215    -0.77700
O248        O  0.24290314  0.42348918  0.64675561    -0.96400
O249        O  0.21720696  0.32817652  0.63450443    -0.89700
O250        O  0.13132631  0.31055862  0.64179677    -0.92500
C251        C  0.21776211  0.44388125  0.73454166     1.01200
C252        C  0.08496561  0.27221716  0.72228331     1.14100
C253        C  0.28634313  0.33647766  0.71156725     1.04900
O254        O  0.34619104  0.43005318  0.66430939    -0.94700
O255        O  0.30939895  0.42284418  0.62395530    -0.90400
O256        O  0.25747527  0.42331184  0.60313270    -0.83600
C257        C  0.29661688  0.43623075  0.60657935     1.11600
O258        O  0.15772841  0.20158932  0.67696587    -0.96700
Zr259      Zr  0.16088731  0.26555216  0.65527896     1.88900
O260        O  0.17767645  0.31009587  0.59851584    -0.73300
O261        O  0.29244424  0.32678771  0.63967042    -0.52600
O262        O  0.20652596  0.23878278  0.63858177    -0.97300
O263        O  0.08996990  0.20162866  0.66226729    -0.54500
O264        O  0.13254609  0.24615462  0.61826641    -0.73800
C265        C  0.15356289  0.26692454  0.60025340     0.98500
O266        O  0.18182936  0.40027584  0.58396299    -0.62700
O267        O  0.08512715  0.38995240  0.68795515    -0.57500
O268        O  0.13139412  0.38740471  0.61130128    -0.94100
O269        O  0.07908083  0.35280889  0.63867306    -0.92600
O270        O  0.17667558  0.48207305  0.69289699    -0.92900
O271        O  0.22299422  0.50996673  0.65327926    -0.91700
C272        C  0.09367779  0.37301057  0.61915884     1.17300
H273        H  0.14904957  0.39361536  0.70966332     0.33300
H274        H  0.26364416  0.45196854  0.63976585     0.44100
H275        H  0.10770949  0.29452900  0.63210517     0.37700
H276        H  0.22671044  0.29119740  0.68475173     0.34100
H277        H  0.28612816  0.03334604  0.68821631     0.25900
H278        H  0.32186965  0.34703426  0.63401818     0.31900
H279        H  0.18809775  0.21384628  0.62870777     0.37800
H280        H  0.19736955  0.51012245  0.70018938     0.32200
H281        H  0.06300683  0.38763869  0.67761901     0.31100
H282        H  0.01832870  0.29577195  0.67241268     0.32800
H283        H  0.07126374  0.21008177  0.65391573     0.31800
H284        H  0.21968977  0.49814048  0.63773819     0.35800
H285        H  0.20047250  0.43360696  0.58334716     0.28500
H286        H  0.21503284  0.33441299  0.75700816     0.32700
H287        H  0.14739400  0.17618623  0.66638364     0.35600
H288        H  0.06953348  0.37493042  0.70239726     0.28200
H289        H  0.19556520  0.38859508  0.57336252     0.41100
H290        H  0.34589082  0.45147203  0.67545619     0.31100
H291        H  0.30843661  0.49864228  0.67811545     0.38700
H292        H  0.08314828  0.20309720  0.67852670     0.30600
H293        H  0.29504963  0.30816396  0.65207810     0.30600
H294        H  0.18772476  0.28407324  0.74946558     0.30900
C295        C  0.42514978  0.36706406  0.43337150     0.80100
N296        N  0.38691342  0.36089609  0.44063448    -0.78200
C297        C  0.35113007  0.32353666  0.43505236     0.82600
N298        N  0.35338501  0.29265457  0.42184272    -0.78100
C299        C  0.39131929  0.29865425  0.41426836     0.82700
N300        N  0.42760696  0.33617288  0.41986871    -0.79900
C301        C  0.48679303  0.17045255  0.39706268     0.80100
N302        N  0.52799526  0.20359108  0.39603587    -0.78200
C303        C  0.55623411  0.19997553  0.40939833     0.82600
N304        N  0.54356061  0.16320984  0.42334685    -0.78100
C305        C  0.50263355  0.13014016  0.42453974     0.82700
N306        N  0.47383358  0.13381084  0.41160891    -0.79900
C307        C  0.21800014  0.05405807  0.40776945     0.80100
N308        N  0.22941897  0.02241340  0.41311956    -0.78200
C309        C  0.20645491  0.98859681  0.42848641     0.82600
N310        N  0.17195191  0.98604916  0.43892275    -0.78100
C311        C  0.15945264  0.01686788  0.43406007     0.82700
N312        N  0.18238658  0.05133040  0.41816261    -0.79900
C313        C  0.24293926  0.32724119  0.43523395     0.80100
N314        N  0.24765265  0.36940055  0.43652944    -0.78200
C315        C  0.21566689  0.37684177  0.43064346     0.82600
N316        N  0.17921899  0.34248718  0.42325704    -0.78100
C317        C  0.17463751  0.30046892  0.42172030     0.82700
N318        N  0.20656021  0.29268232  0.42765866    -0.79900
Zr319      Zr  0.02828512  0.01360008  0.45356516     2.17500
O320        O  0.03586137  0.01859649  0.41205783    -0.51400
O321        O  0.47696539  0.44430671  0.43505861    -0.74600
O322        O  0.09601042  0.02158252  0.43930874    -0.81400
O323        O  0.46645229  0.08177703  0.45650100    -0.83200
O324        O  0.12742573  0.50586720  0.46969740    -0.78800
O325        O  0.51584602  0.07274209  0.43607613    -0.90400
O326        O  0.47340690  0.39534711  0.46196842    -0.76400
O327        O  0.03041116  0.45912596  0.47840940    -0.85900
O328        O  0.46098667  0.98242326  0.47210201    -0.85600
O329        O  0.08574923  0.05357896  0.47887942    -0.72300
O330        O  0.02402601  0.07153075  0.47405622    -0.84500
Zr331      Zr  0.01486811  0.52200242  0.54338611     2.26400
Zr332      Zr  0.08593763  0.49858845  0.50452012     2.06300
Zr333      Zr  0.45774216  0.04087238  0.49297174     2.10000
Zr334      Zr  0.45968182  0.42439885  0.49615647     1.78800
O335        O  0.44655198  0.10560938  0.49826814    -0.93300
O336        O  0.45582693  0.35196157  0.50579680    -0.41100
O337        O  0.45723839  0.48247580  0.51762712    -0.77700
O338        O  0.01669705  0.46172707  0.52271903    -0.96400
O339        O  0.08112637  0.05710819  0.52428840    -0.89700
O340        O  0.01334181  0.07897407  0.51872332    -0.92500
C341        C  0.46233482  0.40377876  0.44300969     1.01200
C342        C  0.49220519  0.09079800  0.43927939     1.14100
C343        C  0.12374596  0.01347381  0.44829145     1.04900
O344        O  0.10378383  0.43817170  0.50122484    -0.94700
O345        O  0.08295803  0.46280518  0.54210733    -0.90400
O346        O  0.03773191  0.47561711  0.56427009    -0.83600
C347        C  0.06069680  0.45699583  0.56056824     1.11600
O348        O  0.12615717  0.15952558  0.46676087    -0.96700
Zr349      Zr  0.08016833  0.11194625  0.49842099     1.88900
O350        O  0.07219900  0.09362660  0.55827483    -0.73300
O351        O  0.15544503  0.04505747  0.51601634    -0.52600
O352        O  0.15423916  0.14483723  0.50804902    -0.97300
O353        O  0.06719227  0.17383508  0.48719900    -0.54500
O354        O  0.08295598  0.14904865  0.53287131    -0.73800
C355        C  0.08978814  0.13556994  0.55174927     0.98500
O356        O  0.49334310  0.51268508  0.58278151    -0.62700
O357        O  0.38690536  0.99684409  0.47859469    -0.57500
O358        O  0.44453462  0.00720683  0.55751918    -0.94100
O359        O  0.41507673  0.02597238  0.52831170    -0.92600
O360        O  0.38755491  0.39813992  0.48446308    -0.92900
O361        O  0.41356093  0.37365763  0.52683169    -0.91700
C362        C  0.41505733  0.01293596  0.54909291     1.17300
H363        H  0.43838474  0.46879211  0.46015509     0.33300
H364        H  0.01031042  0.43474948  0.53156261     0.44100
H365        H  0.00851147  0.10052631  0.52700056     0.37700
H366        H  0.11298570  0.07004878  0.47108236     0.34100
H367        H  0.43696564  0.33066471  0.49454060     0.25900
H368        H  0.16676260  0.02405178  0.51870248     0.31900
H369        H  0.16367230  0.17720573  0.51061163     0.37800
H370        H  0.37303585  0.36482817  0.48709259     0.32200
H371        H  0.36938295  0.97799388  0.49183907     0.31100
H372        H  0.41558059  0.09236603  0.50060417     0.32800
H373        H  0.04917853  0.17521594  0.49970930     0.31800
H374        H  0.41588612  0.39393437  0.53930441     0.35800
H375        H  0.48188034  0.48020971  0.58708504     0.28500
H376        H  0.04217170  0.99431316  0.40768402     0.32700
H377        H  0.14242281  0.19043885  0.47264345     0.35600
H378        H  0.38783223  0.50172529  0.46313023     0.28200
H379        H  0.51995238  0.52855816  0.59106616     0.41100
H380        H  0.07736642  0.41174298  0.49645086     0.31100
H381        H  0.48424699  0.35641379  0.50162854     0.38700
H382        H  0.04814313  0.16236002  0.47424312     0.30600
H383        H  0.17057057  0.06256478  0.50193524     0.30600
H384        H  0.06219875  0.04729072  0.40825316     0.30900
C385        C  0.28741448  0.47725450  0.23378697     0.80100
N386        N  0.32569678  0.48040348  0.22945423    -0.78200
C387        C  0.36331384  0.01785534  0.23290787     0.82600
N388        N  0.35986218  0.04757182  0.24655100    -0.78100
C389        C  0.32138586  0.04222905  0.25249549     0.82700
N390        N  0.28574418  0.00644281  0.24479538    -0.79900
C391        C  0.22663959  0.18754988  0.26980829     0.80100
N392        N  0.18527214  0.15500590  0.27026855    -0.78200
C393        C  0.15794854  0.15897759  0.25638319     0.82600
N394        N  0.17174985  0.19576964  0.24232976    -0.78100
C395        C  0.21286248  0.22868696  0.24162173     0.82700
N396        N  0.24091144  0.22446959  0.25514374    -0.79900
C397        C  0.98709923  0.28237113  0.25743471     0.80100
N398        N  0.01972426  0.28334156  0.24468810    -0.78200
C399        C  0.04259595  0.31931483  0.22964493     0.82600
N400        N  0.03355490  0.35358399  0.22808092    -0.78100
C401        C  0.00237802  0.35303603  0.24109089     0.82700
N402        N  0.97906342  0.31753261  0.25554629    -0.79900
C403        C  0.97122433  0.01728522  0.23635422     0.80100
N404        N  0.96771920  0.47658424  0.23406582    -0.78200
C405        C  0.00139456  0.47157826  0.23911995     0.82600
N406        N  0.04125282  0.01079447  0.24476675    -0.78100
C407        C  0.04277017  0.05162397  0.24553763     0.82700
N408        N  0.00765722  0.05494864  0.24141327    -0.79900
Zr409      Zr  0.19485618  0.33085505  0.11995036     2.17500
O410        O  0.20465958  0.33963977  0.07853663    -0.51400
O411        O  0.14285542  0.26110456  0.10254828    -0.74600
O412        O  0.26265268  0.33973724  0.10620060    -0.81400
O413        O  0.12954047  0.39472370  0.12243655    -0.83200
O414        O  0.29033451  0.31986294  0.13585864    -0.78800
O415        O  0.17990842  0.38656319  0.10262598    -0.90400
O416        O  0.13482005  0.20787189  0.12841965    -0.76400
O417        O  0.19332144  0.27313146  0.14455684    -0.85900
O418        O  0.12571703  0.29655588  0.13794879    -0.85600
O419        O  0.25123584  0.36998387  0.14602872    -0.72300
O420        O  0.18974254  0.38839475  0.14056414    -0.84500
Zr421      Zr  0.17699021  0.33338733  0.21002750     2.26400
Zr422      Zr  0.24868087  0.31137221  0.17092193     2.06300
Zr423      Zr  0.12180517  0.35422768  0.15914130     2.10000
Zr424      Zr  0.12464856  0.23942011  0.16267234     1.78800
O425        O  0.11235420  0.41951969  0.16630360    -0.93300
O426        O  0.12526461  0.17080916  0.17559795    -0.41100
O427        O  0.12055874  0.29673416  0.18393277    -0.77700
O428        O  0.17912104  0.27394584  0.18883282    -0.96400
O429        O  0.24479515  0.36999745  0.19127592    -0.89700
O430        O  0.17645688  0.39089403  0.18593602    -0.92500
C431        C  0.12751368  0.21956123  0.10912824     1.01200
C432        C  0.15551021  0.40373307  0.10529005     1.14100
C433        C  0.29084376  0.33214523  0.11487814     1.04900
O434        O  0.26550467  0.25039271  0.16672559    -0.94700
O435        O  0.24601029  0.27483864  0.20825627    -0.90400
O436        O  0.19982385  0.28620932  0.23036516    -0.83600
C437        C  0.22336542  0.26821584  0.22665482     1.11600
O438        O  0.28965867  0.47652370  0.13548578    -0.96700
Zr439      Zr  0.24390861  0.42645268  0.16653068     1.88900
O440        O  0.23378881  0.40240723  0.22639253    -0.73300
O441        O  0.31881408  0.36146503  0.18468134    -0.52600
O442        O  0.31799218  0.46316929  0.17649894    -0.97300
O443        O  0.22660337  0.48586038  0.15691351    -0.54500
O444        O  0.24631444  0.46026784  0.20220408    -0.73800
C445        C  0.25208972  0.44488009  0.22084154     0.98500
O446        O  0.15742329  0.32851240  0.25040372    -0.62700
O447        O  0.05075625  0.31310202  0.14468712    -0.57500
O448        O  0.10671675  0.31783755  0.22334497    -0.94100
O449        O  0.07802634  0.33725003  0.19396549    -0.92600
O450        O  0.05342585  0.20737366  0.14848118    -0.92900
O451        O  0.07289245  0.19194130  0.19224501    -0.91700
C452        C  0.07749405  0.32374704  0.21469016     1.17300
H453        H  0.10332420  0.28464060  0.12718879     0.33300
H454        H  0.17281187  0.24680004  0.19746460     0.44100
H455        H  0.17108287  0.41156575  0.19468403     0.37700
H456        H  0.27861583  0.38721169  0.13846558     0.34100
H457        H  0.10479854  0.14664278  0.16600046     0.25900
H458        H  0.33193034  0.34189453  0.18638221     0.31900
H459        H  0.32523167  0.49460787  0.18005012     0.37800
H460        H  0.04490515  0.17524409  0.14584143     0.32200
H461        H  0.03754150  0.28346221  0.15310213     0.31100
H462        H  0.08448708  0.41158166  0.16011503     0.32800
H463        H  0.24524676  0.51175029  0.16623113     0.31800
H464        H  0.08382615  0.20842601  0.20644218     0.35800
H465        H  0.14420150  0.29594914  0.25495475     0.28500
H466        H  0.21012790  0.31506064  0.07361666     0.32700
H467        H  0.30357756  0.50745972  0.14150140     0.35600
H468        H  0.03590228  0.32879395  0.15084385     0.28200
H469        H  0.18450522  0.34280587  0.25834416     0.41100
H470        H  0.24010537  0.22565060  0.16000584     0.31100
H471        H  0.15323218  0.17533838  0.17033134     0.38700
H472        H  0.19791796  0.47497853  0.16370951     0.30600
H473        H  0.33435057  0.38210312  0.17150363     0.30600
H474        H  0.23163898  0.36802399  0.07537952     0.30900
Zr475      Zr  0.34929502  0.17941855  0.28871357     2.17500
O476        O  0.34342096  0.20235852  0.24989445    -0.51400
O477        O  0.33813336  0.11325050  0.26717753    -0.74600
O478        O  0.41790127  0.22666929  0.26925933    -0.81400
O479        O  0.24048936  0.16284905  0.30468158    -0.83200
O480        O  0.47145853  0.23145620  0.29048149    -0.78800
O481        O  0.29241377  0.19264637  0.27684966    -0.90400
O482        O  0.30511880  0.04979889  0.28987931    -0.76400
O483        O  0.38256258  0.14034001  0.30474886    -0.85900
O484        O  0.29436393  0.11676594  0.31019389    -0.85600
O485        O  0.40296211  0.23540032  0.31170266    -0.72300
O486        O  0.32167256  0.20968547  0.31698948    -0.84500
Zr487      Zr  0.35639465  0.16122033  0.37803235     2.26400
Zr488      Zr  0.43660934  0.19567010  0.32744127     2.06300
Zr489      Zr  0.26808868  0.14678990  0.33911945     2.10000
Zr490      Zr  0.32798029  0.07845295  0.32692573     1.78800
O491        O  0.23741428  0.19128736  0.35423506    -0.93300
O492        O  0.36764791  0.04049499  0.31577154    -0.41100
O493        O  0.30160081  0.10775074  0.35535853    -0.77700
O494        O  0.38400467  0.13093508  0.34955809    -0.96400
O495        O  0.40972402  0.22464126  0.35647597    -0.89700
O496        O  0.32162903  0.19975163  0.36280053    -0.92500
C497        C  0.31973744  0.07004659  0.27062590     1.01200
C498        C  0.25521532  0.18110829  0.28478672     1.14100
C499        C  0.45730912  0.24121143  0.27257637     1.04900
O500        O  0.47025255  0.15252289  0.31456189    -0.94700
O501        O  0.47017827  0.19122354  0.36201166    -0.90400
O502        O  0.41878026  0.15819082  0.38994634    -0.83600
C503        C  0.45675848  0.17376068  0.38210638     1.11600
O504        O  0.37102004  0.31487590  0.31321314    -0.96700
Zr505      Zr  0.37507778  0.26242703  0.34074562     1.88900
O506        O  0.36923716  0.22662954  0.40006160    -0.73300
O507        O  0.50346029  0.26431798  0.33319481    -0.52600
O508        O  0.44322424  0.33043612  0.33352953    -0.97300
O509        O  0.33177054  0.29393463  0.35550937    -0.54500
O510        O  0.40612712  0.28863977  0.37695186    -0.73800
C511        C  0.39072619  0.26959803  0.39636514     0.98500
O512        O  0.35210779  0.13451013  0.41746040    -0.62700
O513        O  0.19855374  0.08232710  0.33298273    -0.57500
O514        O  0.28693902  0.10583132  0.39458382    -0.94100
O515        O  0.23280925  0.10341804  0.37468000    -0.92600
O516        O  0.25663441  0.01599183  0.33457515    -0.92900
O517        O  0.32624321  0.02556792  0.35623457    -0.91700
C518        C  0.24724095  0.09125471  0.39170113     1.17300
H519        H  0.27168614  0.09751504  0.30052903     0.33300
H520        H  0.39649179  0.11405175  0.35615316     0.44100
H521        H  0.30886603  0.20876442  0.37473956     0.37700
H522        H  0.42269754  0.26295860  0.30352511     0.34100
H523        H  0.34581572  0.00922185  0.31241893     0.25900
H524        H  0.52488078  0.26094045  0.32397078     0.31900
H525        H  0.43904956  0.35574402  0.33867415     0.37800
H526        H  0.23887273  0.02113266  0.32364662     0.32200
H527        H  0.17908810  0.09507941  0.33314003     0.31100
H528        H  0.25162692  0.22024242  0.34522019     0.32800
H529        H  0.35150713  0.32689672  0.35620525     0.31800
H530        H  0.32209028  0.03760975  0.37071958     0.35800
H531        H  0.35682564  0.10805991  0.41687117     0.28500
H532        H  0.35826273  0.19086981  0.23996629     0.32700
H533        H  0.38001893  0.30799309  0.29847860     0.35600
H534        H  0.19950467  0.07414288  0.31698557     0.28200
H535        H  0.37716459  0.15829367  0.42492950     0.41100
H536        H  0.49790607  0.16653685  0.32193117     0.31100
H537        H  0.38102055  0.05443287  0.30073774     0.38700
H538        H  0.32503260  0.28354830  0.37167205     0.30600
H539        H  0.50086448  0.28894065  0.32529130     0.30600
H540        H  0.36119105  0.23581889  0.24885032     0.30900
C541        C  0.99732528  0.42754914  0.23999869    -0.13400
C542        C  0.99675689  0.39182092  0.24065399    -0.14900
C543        C  0.08146624  0.09087599  0.25103854    -0.13400
C544        C  0.11562844  0.12246264  0.25468203    -0.14900
C545        C  0.40394809  0.02196905  0.22858505    -0.13400
C546        C  0.43784091  0.02373275  0.22847139    -0.14900
C547        C  0.21898670  0.45567853  0.43006799    -0.13400
C548        C  0.22052360  0.42112771  0.43120953    -0.14900
C549        C  0.10039113  0.23481210  0.41063519    -0.13400
C550        C  0.13536810  0.26434370  0.41459425    -0.14900
C551        C  0.27827949  0.32091715  0.43940497    -0.13400
C552        C  0.31107065  0.32036905  0.43962671    -0.14900
C553        C  0.33888558  0.08423274  0.57861252    -0.13400
C554        C  0.33829044  0.11939740  0.57897147    -0.14900
C555        C  0.95351806  0.31108156  0.58971776    -0.13400
C556        C  0.41824172  0.28052571  0.58796022    -0.14900
C557        C  0.23816984  0.21047590  0.56703825    -0.13400
C558        C  0.27095943  0.21037417  0.56911110    -0.14900
C559        C  0.02092389  0.07885811  0.74978959    -0.13400
C560        C  0.02150446  0.11498169  0.74958808    -0.14900
C561        C  0.08234121  0.98331716  0.76922926    -0.13400
C562        C  0.11146506  0.97678022  0.77246540    -0.14900
C563        C  0.42910589  0.39137313  0.72915641    -0.13400
C564        C  0.45939453  0.42616769  0.73374357    -0.14900
C565        C  0.09219698  0.37523979  0.90319688    -0.13400
C566        C  0.12052515  0.36729841  0.90650075    -0.14900
C567        C  0.18858224  0.27497013  0.91876786    -0.13400
C568        C  0.18919845  0.23942699  0.91856774    -0.14900
C569        C  0.25889095  0.43585102  0.93410204    -0.13400
C570        C  0.28836914  0.47253677  0.93713192    -0.14900
C571        C  0.29927739  0.07158782  0.07126765    -0.13400
C572        C  0.26401771  0.04097724  0.06904993    -0.14900
C573        C  0.37454276  0.22983557  0.08686462    -0.13400
C574        C  0.37184477  0.26370887  0.08791579    -0.14900
C575        C  0.48103821  0.14441976  0.09014188    -0.13400
C576        C  0.44790883  0.14386179  0.08816127    -0.14900
C577        C  0.09189139  0.68193183  0.09475917     0.80100
N578        N  0.05351643  0.67987359  0.09553222    -0.78200
C579        C  0.52143560  0.64684306  0.08605631     0.82600
N580        N  0.52419155  0.61029478  0.07977008    -0.78100
C581        C  0.06056129  0.60877427  0.08016530     0.82700
N582        N  0.09553587  0.64632748  0.08695354    -0.79900
C583        C  0.38147725  0.87235367  0.07095685     0.80100
N584        N  0.34845558  0.87043811  0.08362676    -0.78200
C585        C  0.32438144  0.83300038  0.09757731     0.82600
N586        N  0.33297862  0.79831934  0.09837742    -0.78100
C587        C  0.36493553  0.80012603  0.08548160     0.82700
N588        N  0.38920604  0.83699506  0.07204349    -0.79900
C589        C  0.15022127  0.97907741  0.06009200     0.80100
N590        N  0.18939560  0.50737365  0.05632852    -0.78200
C591        C  0.21854661  0.50499064  0.06937360     0.82600
N592        N  0.20792970  0.97193969  0.08555671    -0.78100
C593        C  0.16642561  0.94109605  0.08872362     0.82700
N594        N  0.13718215  0.94461839  0.07608023    -0.79900
C595        C  0.40975196  0.64496629  0.07940690     0.80100
N596        N  0.37329327  0.60681161  0.07480176    -0.78200
C597        C  0.33697609  0.60891632  0.07302941     0.82600
N598        N  0.33715052  0.64856629  0.07609230    -0.78100
C599        C  0.37355346  0.68629123  0.08066815     0.82700
N600        N  0.40984278  0.68459690  0.08229250    -0.79900
C601        C  0.37684529  0.58317116  0.92029185     0.80100
N602        N  0.33644403  0.54893049  0.92359129    -0.78200
C603        C  0.32459490  0.00948267  0.93934263     0.82600
N604        N  0.35628267  0.01009965  0.95088406    -0.78100
C605        C  0.39922538  0.54479335  0.94593913     0.82700
N606        N  0.40905882  0.58025570  0.93077680    -0.79900
C607        C  0.15672781  0.61703583  0.92899126     0.80100
N608        N  0.15690083  0.65729189  0.92914920    -0.78200
C609        C  0.18868743  0.69470208  0.91863344     0.82600
N610        N  0.22051503  0.69185861  0.90765477    -0.78100
C611        C  0.22045217  0.65158711  0.90700555     0.82700
N612        N  0.18847945  0.61393271  0.91777176    -0.79900
C613        C  0.18660291  0.81440681  0.92121596     0.80100
N614        N  0.22055349  0.85106315  0.92952257    -0.78200
C615        C  0.22023399  0.89092813  0.93102573     0.82600
N616        N  0.18697918  0.89451405  0.92394580    -0.78100
C617        C  0.15349398  0.85861387  0.91551021     0.82700
N618        N  0.15286275  0.81814799  0.91410470    -0.79900
C619        C  0.48399793  0.83908881  0.89067216     0.80100
N620        N  0.02542940  0.84586077  0.88836876    -0.78200
C621        C  0.05553633  0.87789399  0.90064905     0.82600
N622        N  0.04611830  0.90431961  0.91390074    -0.78100
C623        C  0.00618835  0.89840835  0.91474124     0.82700
N624        N  0.47368974  0.86543092  0.90366248    -0.79900
Zr625      Zr  0.02175369  0.97661100  0.04526590     2.17500
O626        O  0.51555270  0.93839928  0.08171592    -0.51400
O627        O  0.03646040  0.53295051  0.07125686    -0.74600
O628        O  0.08196409  0.96744952  0.05447165    -0.81400
O629        O  0.39985444  0.93185363  0.04260688    -0.83200
O630        O  0.13013549  0.50162657  0.02612055    -0.78800
O631        O  0.45102691  0.92219884  0.05938254    -0.90400
O632        O  0.08467312  0.58664989  0.04847755    -0.76400
O633        O  0.07626749  0.54063007  0.02552557    -0.85900
O634        O  0.49049812  0.52421472  0.03530008    -0.85600
O635        O  0.04583318  0.95118394  0.01291171    -0.72300
O636        O  0.46480178  0.93537498  0.02018048    -0.84500
Zr637      Zr  0.01610784  0.52151154  0.95748751     2.26400
Zr638      Zr  0.09845451  0.51544137  0.99292827     2.06300
Zr639      Zr  0.43747650  0.98467064  0.01002705     2.10000
Zr640      Zr  0.04614974  0.58721772  0.01567366     1.78800
O641        O  0.36517192  0.93149961  0.00030564    -0.93300
O642        O  0.09161185  0.66579028  0.02571497    -0.41100
O643        O  0.49357877  0.54879758  0.99022351    -0.77700
O644        O  0.07172069  0.56587831  0.98321833    -0.96400
O645        O  0.04572786  0.97474236  0.96909679    -0.89700
O646        O  0.45905958  0.95965958  0.97681650    -0.92500
C647        C  0.06369048  0.57440751  0.06723889     1.01200
C648        C  0.41229027  0.91247237  0.05729628     1.14100
C649        C  0.11975089  0.98406335  0.04623637     1.04900
O650        O  0.17142623  0.57388703  0.99738845    -0.94700
O651        O  0.13354815  0.55866537  0.95750512    -0.90400
O652        O  0.08545117  0.57281935  0.94017845    -0.83600
C653        C  0.12306266  0.57894820  0.94232246     1.11600
O654        O  0.47441421  0.84482948  0.01102833    -0.96700
Zr655      Zr  0.98932172  0.90910023  0.98781475     1.88900
O656        O  0.01655121  0.96475617  0.93296453    -0.73300
O657        O  0.12948852  0.97311892  0.97855764    -0.52600
O658        O  0.02983189  0.87574170  0.97152348    -0.97300
O659        O  0.41163649  0.85232193  0.98939919    -0.54500
O660        O  0.97092573  0.89635133  0.94865235    -0.73800
C661        C  0.99571197  0.92129842  0.93248658     0.98500
O662        O  0.00939086  0.55090692  0.92043661    -0.62700
O663        O  0.40718541  0.52417480  0.02926620    -0.57500
O664        O  0.46506715  0.54502729  0.94836603    -0.94100
O665        O  0.41522300  0.01586111  0.97891259    -0.92600
O666        O  0.49535442  0.60768925  0.03235251    -0.92900
O667        O  0.07058657  0.64960753  0.98753528    -0.91700
C668        C  0.42813766  0.03641084  0.95930030     1.17300
H669        H  0.47884338  0.53121013  0.04857924     0.33300
H670        H  0.09419957  0.59460663  0.97744356     0.44100
H671        H  0.43579448  0.94541263  0.96668770     0.37700
H672        H  0.05683917  0.93151754  0.01757136     0.34100
H673        H  0.07959394  0.66917769  0.04035128     0.25900
H674        H  0.12659660  0.97448989  0.96189072     0.31900
H675        H  0.05546392  0.88730993  0.98065966     0.37800
H676        H  0.98239966  0.61311959  0.01859737     0.32200
H677        H  0.40705079  0.04617658  0.02054563     0.31100
H678        H  0.34718627  0.93870316  0.01040231     0.32800
H679        H  0.39783584  0.86251559  0.97814525     0.31800
H680        H  0.04616486  0.64100210  0.97768112     0.35800
H681        H  0.02764705  0.58425645  0.92071187     0.28500
H682        H  0.54098917  0.95869278  0.09014308     0.32700
H683        H  0.46117302  0.81856654  0.00102729     0.35600
H684        H  0.40084446  0.51091400  0.04497682     0.28200
H685        H  0.02388551  0.54091466  0.90936906     0.41100
H686        H  0.16919986  0.59920637  0.00423142     0.31100
H687        H  0.11897322  0.66793371  0.02956611     0.38700
H688        H  0.40066617  0.85587088  0.00434780     0.30600
H689        H  0.16030486  0.99105739  0.98077106     0.30600
H690        H  0.51855030  0.91144816  0.07845852     0.30900
C691        C  0.33626938  0.78266746  0.74700448     0.80100
N692        N  0.37711739  0.81308473  0.74123022    -0.78200
C693        C  0.38645673  0.84822520  0.72655653     0.82600
N694        N  0.35530045  0.85339767  0.71771480    -0.78100
C695        C  0.31441811  0.82435896  0.72331763     0.82700
N696        N  0.30435414  0.78907891  0.73862640    -0.79900
C697        C  0.22901971  0.53042199  0.77581230     0.80100
N698        N  0.18826169  0.51955910  0.77895680    -0.78200
C699        C  0.15758938  0.48416044  0.76870415     0.82600
N700        N  0.16161096  0.95451845  0.75844213    -0.78100
C701        C  0.20270953  0.96591708  0.75402421     0.82700
N702        N  0.23969436  0.50542725  0.76192305    -0.79900
C703        C  0.05032043  0.73604112  0.73719390     0.80100
N704        N  0.05095795  0.69618001  0.73800743    -0.78200
C705        C  0.02076104  0.65986486  0.75011885     0.82600
N706        N  0.49510947  0.66283691  0.76571339    -0.78100
C707        C  0.49295431  0.70182421  0.76353066     0.82700
N708        N  0.01973300  0.73994097  0.74913869    -0.79900
C709        C  0.02336022  0.54026165  0.74951263     0.80100
N710        N  0.49479372  0.50385754  0.74575547    -0.78200
C711        C  0.49035457  0.96161572  0.73866465     0.82600
N712        N  0.01932021  0.95512783  0.74907127    -0.78100
C713        C  0.05482906  0.49524855  0.75766293     0.82700
N714        N  0.05539526  0.53574044  0.75864126    -0.79900
Zr715      Zr  0.35441805  0.66863577  0.78867125     2.17500
O716        O  0.35555617  0.65202664  0.74845422    -0.51400
O717        O  0.34701487  0.72496256  0.76429588    -0.74600
O718        O  0.29581841  0.59581401  0.77849681    -0.81400
O719        O  0.47432418  0.73736644  0.79229019    -0.83200
O720        O  0.24667880  0.57440902  0.80756511    -0.78800
O721        O  0.42214963  0.67758048  0.77467653    -0.90400
O722        O  0.31318978  0.75479440  0.78440905    -0.76400
O723        O  0.30040960  0.67617781  0.80886786    -0.85900
O724        O  0.38886216  0.74400831  0.80215259    -0.85600
O725        O  0.32929386  0.61198887  0.81965135    -0.72300
O726        O  0.40788599  0.67231973  0.81326890    -0.84500
Zr727      Zr  0.36080582  0.69881158  0.87840282     2.26400
Zr728      Zr  0.27598248  0.62110819  0.84000802     2.06300
Zr729      Zr  0.44117711  0.74695655  0.82701459     2.10000
Zr730      Zr  0.33504816  0.75129412  0.82255421     1.78800
O731        O  0.50800312  0.75097678  0.83649313    -0.93300
O732        O  0.26523420  0.74457293  0.82713999    -0.41100
O733        O  0.38772645  0.75500601  0.84757461    -0.77700
O734        O  0.30794527  0.69680923  0.85328154    -0.96400
O735        O  0.32871694  0.62421649  0.86473322    -0.89700
O736        O  0.41615768  0.69279618  0.85857110    -0.92500
C737        C  0.32966099  0.75030772  0.76594820     1.01200
C738        C  0.46121837  0.70671677  0.77723788     1.14100
C739        C  0.25953057  0.56925079  0.78791203     1.04900
O740        O  0.20636423  0.61232476  0.83323425    -0.94700
O741        O  0.24087836  0.62283754  0.87578131    -0.90400
O742        O  0.29179685  0.67841867  0.89621037    -0.83600
C743        C  0.25305247  0.64931135  0.89271748     1.11600
O744        O  0.38751966  0.56408002  0.81915998    -0.96700
Zr745      Zr  0.38345953  0.61833602  0.84439200     1.88900
O746        O  0.36743471  0.64175549  0.90267936    -0.73300
O747        O  0.24528388  0.54429450  0.85621028    -0.52600
O748        O  0.33851830  0.53945368  0.85702383    -0.97300
O749        O  0.45619655  0.63280605  0.84086823    -0.54500
O750        O  0.40088173  0.61084810  0.88303256    -0.73800
C751        C  0.38422127  0.61580960  0.90131249     0.98500
O752        O  0.36769262  0.72747669  0.91677237    -0.62700
O753        O  0.47824253  0.82354516  0.81007926    -0.57500
O754        O  0.41793184  0.77343241  0.88743768    -0.94100
O755        O  0.46689792  0.79772837  0.85807877    -0.92600
O756        O  0.38201897  0.82965531  0.80990113    -0.92900
O757        O  0.33492409  0.80736730  0.84792973    -0.91700
C758        C  0.45356458  0.80169111  0.87779523     1.17300
H759        H  0.40243945  0.76702306  0.79020160     0.33300
H760        H  0.28755204  0.70384164  0.86012738     0.44100
H761        H  0.43883598  0.69814609  0.86856115     0.37700
H762        H  0.31812226  0.58153467  0.81438468     0.34100
H763        H  0.26706651  0.77060670  0.81815976     0.25900
H764        H  0.21497197  0.53004050  0.85267377     0.31900
H765        H  0.32343854  0.54059910  0.87102771     0.37800
H766        H  0.40711184  0.83981593  0.81938887     0.32200
H767        H  0.50782180  0.83596060  0.81476898     0.31100
H768        H  0.02739158  0.77257007  0.83044548     0.32800
H769        H  0.47094157  0.65268287  0.85356045     0.31800
H770        H  0.35337521  0.80879355  0.86043072     0.35800
H771        H  0.35274909  0.74541360  0.91692109     0.28500
H772        H  0.32796125  0.64616376  0.74261707     0.32700
H773        H  0.40210207  0.55061834  0.82778682     0.35600
H774        H  0.47957059  0.81959163  0.79349124     0.28200
H775        H  0.34997059  0.70057275  0.92681605     0.41100
H776        H  0.21014379  0.63019701  0.81898094     0.31100
H777        H  0.24648003  0.71769048  0.81843857     0.38700
H778        H  0.46825670  0.65259024  0.82700826     0.30600
H779        H  0.25669716  0.52907220  0.84635794     0.30600
H780        H  0.35499166  0.62246092  0.74805168     0.30900
C781        C  0.12556873  0.66872385  0.56447818     0.80100
N782        N  0.12173101  0.70083069  0.57623859    -0.78200
C783        C  0.15696927  0.73766592  0.58345101     0.82600
N784        N  0.19559803  0.74200789  0.57902878    -0.78100
C785        C  0.19939893  0.71021973  0.56726227     0.82700
N786        N  0.16447987  0.67355925  0.56006867    -0.79900
C787        C  0.06386640  0.88009008  0.60513236     0.80100
N788        N  0.02274735  0.84718980  0.60566433    -0.78200
C789        C  0.99523937  0.85051247  0.59175470     0.82600
N790        N  0.00866276  0.88702656  0.57751242    -0.78100
C791        C  0.04971458  0.92027381  0.57678962     0.82700
N792        N  0.07788083  0.91669785  0.59038159    -0.79900
C793        C  0.32518259  0.97165658  0.59230013     0.80100
N794        N  0.31918675  0.00829445  0.59173583    -0.78200
C795        C  0.34529305  0.54753500  0.57647604     0.82600
N796        N  0.37606652  0.54738136  0.56330528    -0.78100
C797        C  0.38079516  0.00899331  0.56451502     0.82700
N798        N  0.35675903  0.97198237  0.57881949    -0.79900
C799        C  0.31053835  0.71089617  0.56875547     0.78300
N800        N  0.34680086  0.74818002  0.57431232    -0.78200
C801        C  0.38084117  0.74401872  0.57999439     0.82600
N802        N  0.37855638  0.70279463  0.58021250    -0.78100
C803        C  0.34222185  0.66563936  0.57476560     0.82700
N804        N  0.30816183  0.66962573  0.56911970    -0.79900
Zr805      Zr  0.19093932  0.84024354  0.71137902     2.17500
O806        O  0.18616201  0.81227697  0.75058782    -0.51400
O807        O  0.19734469  0.90036716  0.73683706    -0.74600
O808        O  0.24840951  0.82466152  0.72162543    -0.81400
O809        O  0.07153947  0.79476352  0.70881808    -0.83200
O810        O  0.29623310  0.85247853  0.69177373    -0.78800
O811        O  0.12100243  0.78109899  0.72474533    -0.90400
O812        O  0.22680023  0.96770479  0.71700757    -0.76400
O813        O  0.24701637  0.90430457  0.69116324    -0.85900
O814        O  0.16014027  0.88462485  0.69801633    -0.85600
O815        O  0.21395674  0.81091820  0.68019765    -0.72300
O816        O  0.13495944  0.79302735  0.68712784    -0.84500
Zr817      Zr  0.18625425  0.87254167  0.62236848     2.26400
Zr818      Zr  0.26967113  0.87567856  0.65966199     2.06300
Zr819      Zr  0.10577558  0.83820343  0.67331412     2.10000
Zr820      Zr  0.21584313  0.94796214  0.67773208     1.78800
O821        O  0.03371113  0.77724678  0.66891991    -0.93300
O822        O  0.28816862  0.01018132  0.67904129    -0.41100
O823        O  0.16143437  0.90182401  0.65261486    -0.77700
O824        O  0.24087920  0.92219742  0.64689822    -0.96400
O825        O  0.21438476  0.82649551  0.63568394    -0.89700
O826        O  0.12882524  0.80974642  0.64238863    -0.92500
C827        C  0.21132749  0.94346585  0.73523547     1.01200
C828        C  0.08291022  0.77387801  0.72318764     1.14100
C829        C  0.28375589  0.83364505  0.71173341     1.04900
O830        O  0.33890981  0.93811049  0.66814794    -0.94700
O831        O  0.30692893  0.91841292  0.62397798    -0.90400
O832        O  0.25537790  0.92070501  0.60357164    -0.83600
C833        C  0.29435082  0.93251859  0.60680425     1.11600
O834        O  0.15275634  0.70573557  0.68307534    -0.96700
Zr835      Zr  0.15732603  0.76441437  0.65649362     1.88900
O836        O  0.17695874  0.80898559  0.59907896    -0.73300
O837        O  0.29841046  0.83077901  0.64272060    -0.52600
O838        O  0.19617610  0.72750479  0.64239049    -0.97300
O839        O  0.08374438  0.70433098  0.65993400    -0.54500
O840        O  0.13271726  0.74455309  0.61885453    -0.73800
C841        C  0.15382341  0.76568063  0.60092407     0.98500
O842        O  0.17826231  0.89965150  0.58497004    -0.62700
O843        O  0.08036340  0.88780745  0.68805687    -0.57500
O844        O  0.13014133  0.88752779  0.61194404    -0.94100
O845        O  0.07753243  0.85361121  0.63923707    -0.92600
O846        O  0.17026351  0.98081872  0.68510735    -0.92900
O847        O  0.22891922  0.01027090  0.65134011    -0.91700
C848        C  0.09257585  0.87395972  0.61981000     1.17300
H849        H  0.14695077  0.89351310  0.70979208     0.33300
H850        H  0.26197202  0.95044487  0.63983595     0.44100
H851        H  0.10554350  0.79350816  0.63251402     0.37700
H852        H  0.22357582  0.79035772  0.68534933     0.34100
H853        H  0.29304827  0.53131369  0.68759797     0.25900
H854        H  0.29157870  0.82930600  0.62643304     0.31900
H855        H  0.17488347  0.70029330  0.63477234     0.37800
H856        H  0.18814147  0.00905093  0.69313216     0.32200
H857        H  0.08225362  0.90740252  0.67484028     0.31100
H858        H  0.01568335  0.79130975  0.67164236     0.32800
H859        H  0.06789878  0.71532044  0.65063499     0.31800
H860        H  0.21826779  0.99566020  0.63667498     0.35800
H861        H  0.19863311  0.93260243  0.58405447     0.28500
H862        H  0.21329660  0.83316019  0.75748937     0.32700
H863        H  0.13372417  0.67649074  0.67617600     0.35600
H864        H  0.04964603  0.86775736  0.69101800     0.28200
H865        H  0.18958856  0.88622766  0.57390532     0.41100
H866        H  0.35842425  0.92557176  0.66654362     0.31100
H867        H  0.30278669  0.99842448  0.68884179     0.38700
H868        H  0.07469537  0.70530962  0.67582810     0.30600
H869        H  0.32947397  0.85051658  0.64282788     0.30600
H870        H  0.18604936  0.78299651  0.74963928     0.30900
C871        C  0.42387927  0.86858950  0.43468408     0.80100
N872        N  0.38537062  0.86149134  0.44209995    -0.78200
C873        C  0.34986479  0.82444691  0.43590002     0.82600
N874        N  0.35269520  0.79482643  0.42198616    -0.78100
C875        C  0.39091734  0.80180369  0.41431839     0.82700
N876        N  0.42689960  0.83892769  0.42052632    -0.79900
C877        C  0.48770820  0.67206016  0.39721352     0.80100
N878        N  0.52901036  0.70489845  0.39674242    -0.78200
C879        C  0.55665987  0.70009965  0.41008351     0.82600
N880        N  0.54337034  0.66254742  0.42348321    -0.78100
C881        C  0.50241427  0.62966860  0.42418893     0.82700
N882        N  0.47408654  0.63444750  0.41125231    -0.79900
C883        C  0.22136854  0.55826720  0.40757019     0.80100
N884        N  0.23246768  0.52603780  0.41203444    -0.78200
C885        C  0.20974246  0.49171698  0.42719036     0.82600
N886        N  0.17582194  0.48931322  0.43830242    -0.78100
C887        C  0.16371513  0.52076203  0.43423488     0.82700
N888        N  0.18638885  0.55567244  0.41857599    -0.79900
C889        C  0.24015650  0.82498018  0.43843475     0.80100
N890        N  0.24478893  0.86707790  0.43987785    -0.78200
C891        C  0.21269055  0.87447102  0.43421690     0.82600
N892        N  0.17629233  0.84021962  0.42676128    -0.78100
C893        C  0.17176877  0.79827917  0.42506172     0.82700
N894        N  0.20377107  0.79047007  0.43081592    -0.79900
Zr895      Zr  0.03122220  0.51547714  0.45291118     2.17500
O896        O  0.04331586  0.52693296  0.41168147    -0.51400
O897        O  0.47625927  0.94549530  0.43683887    -0.74600
O898        O  0.09939150  0.52338540  0.43937207    -0.81400
O899        O  0.46604811  0.58019663  0.45593917    -0.83200
O900        O  0.12251467  0.00144843  0.46941065    -0.78800
O901        O  0.51546602  0.57171886  0.43520828    -0.90400
O902        O  0.47108547  0.89561157  0.46379341    -0.76400
O903        O  0.02660405  0.95717220  0.47933984    -0.85900
O904        O  0.46106106  0.48084342  0.47073518    -0.85600
O905        O  0.08776899  0.55561450  0.47869360    -0.72300
O906        O  0.02453205  0.57158100  0.47379986    -0.84500
Zr907      Zr  0.01407360  0.02316391  0.54389169     2.26400
Zr908      Zr  0.08304918  0.99643609  0.50485881     2.06300
Zr909      Zr  0.45814854  0.53885479  0.49226555     2.10000
Zr910      Zr  0.46021112  0.92683394  0.49789774     1.78800
O911        O  0.44759954  0.60364290  0.49865866    -0.93300
O912        O  0.45653944  0.85511985  0.50893076    -0.41100
O913        O  0.45711156  0.98511009  0.51859755    -0.77700
O914        O  0.01450780  0.96159360  0.52382987    -0.96400
O915        O  0.08222577  0.55806447  0.52410956    -0.89700
O916        O  0.01283039  0.57744208  0.51839346    -0.92500
C917        C  0.46080335  0.90481337  0.44476269     1.01200
C918        C  0.49171632  0.58963619  0.43861597     1.14100
C919        C  0.12800762  0.51693206  0.44851933     1.04900
O920        O  0.09390044  0.93099807  0.50265428    -0.94700
O921        O  0.08278235  0.96505942  0.54323309    -0.90400
O922        O  0.03688108  0.97738709  0.56508481    -0.83600
C923        C  0.06031466  0.95928762  0.56159745     1.11600
O924        O  0.12319507  0.66019255  0.46603935    -0.96700
Zr925      Zr  0.07999475  0.61247083  0.49839745     1.88900
O926        O  0.07243976  0.59276966  0.55826675    -0.73300
O927        O  0.15592917  0.55060495  0.51792653    -0.52600
O928        O  0.15465891  0.64822291  0.50710560    -0.97300
O929        O  0.06420319  0.67282513  0.48830639    -0.54500
O930        O  0.08393438  0.64901649  0.53317135    -0.73800
C931        C  0.09041836  0.63492904  0.55198412     0.98500
O932        O  0.49650061  0.02015294  0.58422453    -0.62700
O933        O  0.38633293  0.49317051  0.47946561    -0.57500
O934        O  0.44718299  0.50983653  0.55729976    -0.94100
O935        O  0.41630959  0.52556559  0.52775061    -0.92600
O936        O  0.38742811  0.89748929  0.48665135    -0.92900
O937        O  0.41462594  0.88129873  0.53004664    -0.91700
C938        C  0.41730064  0.51469125  0.54879245     1.17300
H939        H  0.43806942  0.96988143  0.46166712     0.33300
H940        H  0.00848159  0.93506965  0.53298220     0.44100
H941        H  0.00761854  0.59863399  0.52676833     0.37700
H942        H  0.11505871  0.57272578  0.47100494     0.34100
H943        H  0.43646288  0.83281817  0.49843358     0.25900
H944        H  0.16535892  0.53082498  0.52550145     0.31900
H945        H  0.16271076  0.68000313  0.51036383     0.37800
H946        H  0.37458795  0.86415062  0.48859676     0.32200
H947        H  0.36999305  0.50607283  0.48688629     0.31100
H948        H  0.41706292  0.59208785  0.49650712     0.32800
H949        H  0.04384995  0.67101007  0.50033409     0.31800
H950        H  0.43155712  0.89435184  0.54364752     0.35800
H951        H  0.48321571  0.98775517  0.58910976     0.28500
H952        H  0.04905955  0.50269593  0.40650023     0.32700
H953        H  0.13884393  0.69136027  0.47168901     0.35600
H954        H  0.37719896  0.01924606  0.47588980     0.28200
H955        H  0.52385661  0.03458008  0.59190771     0.41100
H956        H  0.06502246  0.90457573  0.50325173     0.31100
H957        H  0.48447277  0.85887037  0.50418926     0.38700
H958        H  0.04720751  0.66244080  0.47452701     0.30600
H959        H  0.17419280  0.56253731  0.50393468     0.30600
H960        H  0.07044299  0.55546927  0.40919189     0.30900
C961        C  0.28928585  0.97642822  0.23102126     0.80100
N962        N  0.32812017  0.98219665  0.22526689    -0.78200
C963        C  0.36117756  0.51581038  0.23699986     0.82600
N964        N  0.35859893  0.54786068  0.24908643    -0.78100
C965        C  0.32070328  0.54514315  0.25359272     0.82700
N966        N  0.28474602  0.50966387  0.24599414    -0.79900
C967        C  0.22687857  0.68642764  0.26856565     0.80100
N968        N  0.18596461  0.65275436  0.26826638    -0.78200
C969        C  0.15917445  0.65565216  0.25350608     0.82600
N970        N  0.17301465  0.69231374  0.23934478    -0.78100
C971        C  0.21363871  0.72622583  0.23939457     0.82700
N972        N  0.24107586  0.72328882  0.25388115    -0.79900
C973        C  0.99038774  0.78382625  0.25784112     0.80100
N974        N  0.02242723  0.78395601  0.24484960    -0.78200
C975        C  0.04569343  0.81980778  0.22976426     0.82600
N976        N  0.03756366  0.85474972  0.22839251    -0.78100
C977        C  0.00694683  0.85502967  0.24157132     0.82700
N978        N  0.98322242  0.81962849  0.25605709    -0.79900
C979        C  0.97137427  0.51835719  0.23341968     0.80100
N980        N  0.96968968  0.97653167  0.23577755    -0.78200
C981        C  0.00467180  0.97331954  0.23988924     0.82600
N982        N  0.03877372  0.50821528  0.24369188    -0.78100
C983        C  0.04244903  0.55007007  0.24322935     0.82700
N984        N  0.00865070  0.55528681  0.23816696    -0.79900
Zr985      Zr  0.19410740  0.82832463  0.11785035     2.17500
O986        O  0.20527871  0.84069118  0.07658495    -0.51400
O987        O  0.14133938  0.75922692  0.10022672    -0.74600
O988        O  0.26161644  0.83665349  0.10398414    -0.81400
O989        O  0.13073464  0.89359162  0.12155597    -0.83200
O990        O  0.28938551  0.81648331  0.13350330    -0.78800
O991        O  0.17987446  0.88471119  0.10089992    -0.90400
O992        O  0.13458128  0.70647291  0.12600486    -0.76400
O993        O  0.19317325  0.77071685  0.14231836    -0.85900
O994        O  0.12522782  0.79370792  0.13624523    -0.85600
O995        O  0.25081214  0.86717124  0.14372878    -0.72300
O996        O  0.18909314  0.88515782  0.13909031    -0.84500
Zr997      Zr  0.17822405  0.83164510  0.20829724     2.26400
Zr998      Zr  0.24858991  0.80879823  0.16867840     2.06300
Zr999      Zr  0.12133901  0.85087214  0.15788548     2.10000
Zr1000     Zr  0.12491809  0.73683513  0.16084244     1.78800
O1001       O  0.10587158  0.91259887  0.16339860    -0.93300
O1002       O  0.12774928  0.66883707  0.17262155    -0.41100
O1003       O  0.12095153  0.79387949  0.18268734    -0.77700
O1004       O  0.17944978  0.77182640  0.18696480    -0.96400
O1005       O  0.24554311  0.86774904  0.18911947    -0.89700
O1006       O  0.17701874  0.88861816  0.18405847    -0.92500
C1007       C  0.12600138  0.71777218  0.10696337     1.01200
C1008       C  0.15628451  0.90263659  0.10416960     1.14100
C1009       C  0.28980312  0.82897572  0.11259293     1.04900
O1010       O  0.26455677  0.74720022  0.16452182    -0.94700
O1011       O  0.24614615  0.77217440  0.20595981    -0.90400
O1012       O  0.20089963  0.78420599  0.22853732    -0.83600
C1013       C  0.22405494  0.76586230  0.22454926     1.11600
O1014       O  0.29264582  0.97309453  0.13376982    -0.96700
Zr1015     Zr  0.24435534  0.92392721  0.16433034     1.88900
O1016       O  0.23575276  0.90126471  0.22394395    -0.73300
O1017       O  0.31887747  0.86075926  0.18173213    -0.52600
O1018       O  0.31800583  0.95797686  0.17486500    -0.97300
O1019       O  0.23015226  0.98505349  0.15333714    -0.54500
O1020       O  0.24722008  0.95869071  0.19973303    -0.73800
C1021       C  0.25366089  0.94369076  0.21831390     0.98500
O1022       O  0.16149557  0.82996294  0.24890778    -0.62700
O1023       O  0.05034778  0.80316827  0.14436896    -0.57500
O1024       O  0.10862270  0.81612754  0.22263796    -0.94100
O1025       O  0.08023670  0.83700046  0.19369651    -0.92600
O1026       O  0.05326382  0.70426011  0.14722150    -0.92900
O1027       O  0.07407606  0.68623794  0.18997806    -0.91700
C1028       C  0.07982178  0.82320959  0.21438005     1.17300
H1029       H  0.10263105  0.78165680  0.12561171     0.33300
H1030       H  0.17309428  0.74472934  0.19566281     0.44100
H1031       H  0.17181806  0.90951123  0.19272158     0.37700
H1032       H  0.27812528  0.88428758  0.13607702     0.34100
H1033       H  0.11094548  0.64591643  0.16143222     0.25900
H1034       H  0.32641672  0.84173888  0.19147304     0.31900
H1035       H  0.32642715  0.98989988  0.17800757     0.37800
H1036       H  0.04476296  0.67208877  0.14470691     0.32200
H1037       H  0.03530334  0.78084926  0.15704266     0.31100
H1038       H  0.08074616  0.90490194  0.15427410     0.32800
H1039       H  0.20634585  0.98070472  0.16358882     0.31800
H1040       H  0.08224120  0.70377586  0.20403864     0.35800
H1041       H  0.14983903  0.79800059  0.25426722     0.28500
H1042       H  0.21127071  0.81683398  0.07107272     0.32700
H1043       H  0.30653209  0.00413841  0.13966080     0.35600
H1044       H  0.03720215  0.82285444  0.14417395     0.28200
H1045       H  0.18908867  0.84623142  0.25625674     0.41100
H1046       H  0.24167352  0.72510548  0.15514463     0.31100
H1047       H  0.15733664  0.67625034  0.16917695     0.38700
H1048       H  0.21768710  0.97713760  0.13815519     0.30600
H1049       H  0.33780014  0.86858230  0.16802862     0.30600
H1050       H  0.23217055  0.86946850  0.07404275     0.30900
Zr1051     Zr  0.35074543  0.68370191  0.28878384     2.17500
O1052       O  0.34373704  0.70172323  0.24920872    -0.51400
O1053       O  0.33948687  0.61726871  0.26749191    -0.74600
O1054       O  0.41914806  0.73264560  0.26952670    -0.81400
O1055       O  0.24041039  0.66133602  0.30362599    -0.83200
O1056       O  0.47260469  0.73513268  0.29007342    -0.78800
O1057       O  0.29389550  0.69673862  0.27700975    -0.90400
O1058       O  0.30393388  0.55461808  0.29038021    -0.76400
O1059       O  0.38495072  0.64554215  0.30471459    -0.85900
O1060       O  0.29624406  0.62101126  0.31044071    -0.85600
O1061       O  0.40417294  0.73984157  0.31185243    -0.72300
O1062       O  0.32266140  0.71428864  0.31674521    -0.84500
Zr1063     Zr  0.35838753  0.66602809  0.37785894     2.26400
Zr1064     Zr  0.43870589  0.70099944  0.32757927     2.06300
Zr1065     Zr  0.26968115  0.65114977  0.33907321     2.10000
Zr1066     Zr  0.33077666  0.58327284  0.32681852     1.78800
O1067       O  0.24086108  0.69847428  0.35260741    -0.93300
O1068       O  0.37123057  0.54807445  0.31264462    -0.41100
O1069       O  0.30375308  0.61232237  0.35513043    -0.77700
O1070       O  0.38626563  0.63611475  0.34951162    -0.96400
O1071       O  0.41163025  0.73001476  0.35651124    -0.89700
O1072       O  0.32290646  0.70419781  0.36282132    -0.92500
C1073       C  0.31944182  0.57411223  0.27111047     1.01200
C1074       C  0.25559441  0.68149828  0.28412660     1.14100
C1075       C  0.45850294  0.74615782  0.27251115     1.04900
O1076       O  0.47454231  0.65910268  0.31637885    -0.94700
O1077       O  0.47175525  0.69408908  0.36208844    -0.90400
O1078       O  0.42065231  0.66317384  0.39027448    -0.83600
C1079       C  0.45828125  0.67702710  0.38229129     1.11600
O1080       O  0.37449760  0.82231644  0.31419335    -0.96700
Zr1081     Zr  0.37597825  0.76685551  0.34074728     1.88900
O1082       O  0.36972430  0.73030745  0.40007543    -0.73300
O1083       O  0.50404743  0.77144602  0.33303145    -0.52600
O1084       O  0.44150298  0.83723609  0.33236174    -0.97300
O1085       O  0.33005158  0.79393912  0.35681284    -0.54500
O1086       O  0.40714285  0.79232030  0.37709523    -0.73800
C1087       C  0.39109092  0.77321336  0.39642616     0.98500
O1088       O  0.35297116  0.63786579  0.41709876    -0.62700
O1089       O  0.19788497  0.58889187  0.33548943    -0.57500
O1090       O  0.28980228  0.61008084  0.39439397    -0.94100
O1091       O  0.23553500  0.60841339  0.37497314    -0.92600
O1092       O  0.26117691  0.51821257  0.33525177    -0.92900
O1093       O  0.33574167  0.53219937  0.35490894    -0.91700
C1094       C  0.25019826  0.59581883  0.39172091     1.17300
H1095       H  0.27323646  0.60173455  0.30096526     0.33300
H1096       H  0.39890180  0.61944549  0.35616383     0.44100
H1097       H  0.31015292  0.71344554  0.37468269     0.37700
H1098       H  0.42386558  0.76756091  0.30377762     0.34100
H1099       H  0.34984738  0.51831583  0.30711794     0.25900
H1100       H  0.52668395  0.76618451  0.32657780     0.31900
H1101       H  0.46310596  0.83429052  0.34112535     0.37800
H1102       H  0.25340288  0.52247025  0.35090682     0.32200
H1103       H  0.18082771  0.60333669  0.33119805     0.31100
H1104       H  0.24302632  0.71774045  0.33918471     0.32800
H1105       H  0.31212392  0.79346027  0.34423048     0.31800
H1106       H  0.33392284  0.54442969  0.36981317     0.35800
H1107       H  0.35905317  0.61235305  0.41648371     0.28500
H1108       H  0.36046996  0.69149378  0.23996993     0.32700
H1109       H  0.36906479  0.80769263  0.29928497     0.35600
H1110       H  0.19910040  0.57304295  0.32174538     0.28200
H1111       H  0.37700612  0.66202576  0.42504461     0.41100
H1112       H  0.46140909  0.63137274  0.32635996     0.31100
H1113       H  0.38643651  0.56594853  0.29866467     0.38700
H1114       H  0.34906631  0.82653159  0.35933249     0.30600
H1115       H  0.50311798  0.79403382  0.32241947     0.30600
H1116       H  0.35947660  0.73525123  0.24751883     0.30900
C1117       C  0.00230553  0.92997172  0.24026912    -0.13400
C1118       C  0.00195360  0.89430039  0.24099189    -0.14900
C1119       C  0.08214736  0.58839005  0.24825439    -0.13400
C1120       C  0.11688887  0.61912991  0.25170087    -0.14900
C1121       C  0.40109375  0.51776931  0.23403235    -0.13400
C1122       C  0.43456053  0.51875302  0.23445375    -0.14900
C1123       C  0.21624597  0.95326470  0.43244869    -0.13400
C1124       C  0.21782759  0.91884865  0.43438121    -0.14900
C1125       C  0.09841343  0.73381871  0.41222587    -0.13400
C1126       C  0.13303883  0.76270462  0.41712069    -0.14900
C1127       C  0.27603303  0.81918097  0.44176730    -0.13400
C1128       C  0.30940068  0.81983515  0.44115277    -0.14900
C1129       C  0.34012518  0.58680857  0.57609264    -0.13400
C1130       C  0.33969327  0.62212685  0.57546090    -0.14900
C1131       C  0.95306821  0.81367537  0.59061899    -0.13400
C1132       C  0.41940499  0.78295038  0.58569554    -0.14900
C1133       C  0.23989869  0.71328207  0.56450186    -0.13400
C1134       C  0.27327918  0.71395501  0.56496105    -0.14900
C1135       C  0.02299757  0.58265363  0.75049345    -0.13400
C1136       C  0.02177308  0.61776298  0.75065708    -0.14900
C1137       C  0.08867382  0.48918537  0.76532004    -0.13400
C1138       C  0.11761112  0.48214099  0.76810922    -0.14900
C1139       C  0.42738832  0.88660445  0.72558441    -0.13400
C1140       C  0.45721008  0.92258388  0.72914550    -0.14900
C1141       C  0.09265085  0.87457501  0.90393344    -0.13400
C1142       C  0.11964269  0.86509732  0.90819997    -0.14900
C1143       C  0.18691315  0.77207152  0.91972617    -0.13400
C1144       C  0.18810641  0.73699854  0.91896936    -0.14900
C1145       C  0.25619738  0.93120110  0.93754729    -0.13400
C1146       C  0.28573515  0.96818374  0.93971892    -0.14900
C1147       C  0.29769361  0.56940947  0.06893844    -0.13400
C1148       C  0.26200697  0.53913058  0.06752284    -0.14900
C1149       C  0.37361348  0.72793877  0.08348504    -0.13400
C1150       C  0.37129894  0.76190965  0.08499378    -0.14900
C1151       C  0.48206169  0.64620769  0.08410758    -0.13400
C1152       C  0.44834270  0.64402983  0.08175837    -0.14900
C1153       C  0.59309626  0.18179410  0.09762531     0.80100
N1154       N  0.55540540  0.18128633  0.09799177    -0.78200
C1155       C  0.02146499  0.14659525  0.08913946     0.82600
N1156       N  0.02467194  0.11114785  0.08136306    -0.78100
C1157       C  0.56058689  0.10920488  0.08253304     0.82700
N1158       N  0.59584204  0.14576311  0.08977713    -0.79900
C1159       C  0.88048224  0.37180068  0.07166298     0.80100
N1160       N  0.84796404  0.37099081  0.08438587    -0.78200
C1161       C  0.82490666  0.33505934  0.09942144     0.82600
N1162       N  0.83399059  0.30084695  0.10122312    -0.78100
C1163       C  0.86542938  0.30158713  0.08834790     0.82700
N1164       N  0.88865414  0.33687106  0.07381371    -0.79900
C1165       C  0.64682710  0.47669620  0.06068115     0.80100
N1166       N  0.69212061  0.00969594  0.05601548    -0.78200
C1167       C  0.72160336  0.00743878  0.06884340     0.82600
N1168       N  0.70485170  0.46895836  0.08555291    -0.78100
C1169       C  0.66336484  0.43841183  0.08906232     0.82700
N1170       N  0.63385949  0.44222626  0.07671969    -0.79900
C1171       C  0.91068252  0.14685579  0.08340477     0.80100
N1172       N  0.87484924  0.10957013  0.07726653    -0.78200
C1173       C  0.83895746  0.11214552  0.07462561     0.82600
N1174       N  0.83890261  0.15147515  0.07834200    -0.78100
C1175       C  0.87469911  0.18838553  0.08445414     0.82700
N1176       N  0.91064238  0.18625439  0.08691905    -0.79900
C1177       C  0.87379462  0.07844712  0.92079190     0.80100
N1178       N  0.83321799  0.04550238  0.92540485    -0.78200
C1179       C  0.82451664  0.51279641  0.93991534     0.82600
N1180       N  0.85559794  0.51141958  0.95118443    -0.78100
C1181       C  0.89670746  0.04187493  0.94734950     0.82700
N1182       N  0.90624463  0.07560809  0.93109575    -0.79900
C1183       C  0.65760375  0.11920018  0.92909515     0.80100
N1184       N  0.65844909  0.15987633  0.92890198    -0.78200
C1185       C  0.69032705  0.19669747  0.91795708     0.82600
N1186       N  0.72147769  0.19270457  0.90688048    -0.78100
C1187       C  0.72069545  0.15200828  0.90658955     0.82700
N1188       N  0.68870618  0.11507267  0.91778865    -0.79900
C1189       C  0.68928872  0.31747830  0.91958363     0.80100
N1190       N  0.72280314  0.35486556  0.92776342    -0.78200
C1191       C  0.72145388  0.39426627  0.92907335     0.82600
N1192       N  0.68752282  0.39658663  0.92206049    -0.78100
C1193       C  0.65439891  0.35994744  0.91387124     0.82700
N1194       N  0.65483320  0.32000158  0.91263886    -0.79900
C1195       C  0.98371544  0.33594361  0.88973959     0.80100
N1196       N  0.52259846  0.34245420  0.88978110    -0.78200
C1197       C  0.55285775  0.37481195  0.90182217     0.82600
N1198       N  0.54378605  0.40200016  0.91469582    -0.78100
C1199       C  0.50394392  0.39642603  0.91541388     0.82700
N1200       N  0.97315931  0.36175906  0.90293783    -0.79900
Zr1201     Zr  0.51944059  0.47569956  0.04490789     2.17500
O1202       O  0.00972517  0.43316207  0.08037965    -0.51400
O1203       O  0.53634415  0.03387150  0.07277221    -0.74600
O1204       O  0.57845361  0.46465137  0.05445947    -0.81400
O1205       O  0.89817346  0.42936941  0.04216763    -0.83200
O1206       O  0.63244209  0.00437216  0.02620651    -0.78800
O1207       O  0.94958231  0.42039043  0.05902827    -0.90400
O1208       O  0.58494067  0.08832448  0.05045884    -0.76400
O1209       O  0.57820353  0.04349896  0.02662828    -0.85900
O1210       O  0.99100193  0.02326391  0.03549058    -0.85600
O1211       O  0.54289667  0.44972004  0.01256468    -0.72300
O1212       O  0.96344016  0.43132429  0.01923134    -0.84500
Zr1213     Zr  0.51736590  0.02500837  0.95844513     2.26400
Zr1214     Zr  0.59980045  0.01856160  0.99361112     2.06300
Zr1215     Zr  0.93545359  0.47973175  0.00876040     2.10000
Zr1216     Zr  0.54831757  0.09045209  0.01702389     1.78800
O1217       O  0.86626240  0.42169521  0.99716561    -0.93300
O1218       O  0.58644719  0.16825294  0.02966574    -0.41100
O1219       O  0.99251091  0.04712336  0.99060702    -0.77700
O1220       O  0.57318994  0.06918565  0.98412280    -0.96400
O1221       O  0.54426247  0.47364902  0.96904666    -0.89700
O1222       O  0.95796780  0.45555011  0.97555136    -0.92500
C1223       C  0.56347224  0.07537824  0.06908754     1.01200
C1224       C  0.91086649  0.41071247  0.05711317     1.14100
C1225       C  0.61658103  0.48195736  0.04671959     1.04900
O1226       O  0.67199876  0.07873741  0.99837459    -0.94700
O1227       O  0.63405194  0.06041191  0.95759271    -0.90400
O1228       O  0.58649307  0.07644353  0.94100061    -0.83600
C1229       C  0.62384319  0.08160580  0.94273760     1.11600
O1230       O  0.97696242  0.34175145  0.00935457    -0.96700
Zr1231     Zr  0.48596658  0.40894882  0.98745925     1.88900
O1232       O  0.51679772  0.46420130  0.93331922    -0.73300
O1233       O  0.62635098  0.46840160  0.98042675    -0.52600
O1234       O  0.52275916  0.37198103  0.97065135    -0.97300
O1235       O  0.91122697  0.34855474  0.98842545    -0.54500
O1236       O  0.46716670  0.39715710  0.94831849    -0.73800
C1237       C  0.49386003  0.42089519  0.93257783     0.98500
O1238       O  0.50794376  0.05005033  0.92078365    -0.62700
O1239       O  0.90605516  0.01959935  0.02988012    -0.57500
O1240       O  0.96325136  0.04319695  0.94932113    -0.94100
O1241       O  0.91407401  0.51418896  0.97889564    -0.92600
O1242       O  0.99494986  0.10723602  0.03280118    -0.92900
O1243       O  0.58289577  0.15700949  0.99131185    -0.91700
C1244       C  0.92701765  0.53437407  0.95922096     1.17300
H1245       H  0.97902657  0.03005730  0.04869415     0.33300
H1246       H  0.59586967  0.09762279  0.97821766     0.44100
H1247       H  0.93494361  0.44114308  0.96528237     0.37700
H1248       H  0.55321756  0.42946202  0.01726378     0.34100
H1249       H  0.57135777  0.16858274  0.04382676     0.25900
H1250       H  0.62581503  0.47060920  0.96363097     0.31900
H1251       H  0.54797362  0.38130125  0.97993610     0.37800
H1252       H  0.49291970  0.12783109  0.01950139     0.32200
H1253       H  0.90883709  0.54416323  0.01993003     0.31100
H1254       H  0.84662342  0.43268595  0.00203009     0.32800
H1255       H  0.89715371  0.35916866  0.97756676     0.31800
H1256       H  0.55994501  0.15503285  0.98173483     0.35800
H1257       H  0.52974013  0.08240198  0.91886316     0.28500
H1258       H  0.03365018  0.45338366  0.08976871     0.32700
H1259       H  0.95966261  0.31488765  0.00026627     0.35600
H1260       H  0.87516656  0.00042878  0.02836334     0.28200
H1261       H  0.51685148  0.03425357  0.90978562     0.41100
H1262       H  0.66897516  0.10515578  0.00279730     0.31100
H1263       H  0.61402889  0.17257655  0.03470076     0.38700
H1264       H  0.90042790  0.35121662  0.00360591     0.30600
H1265       H  0.65678039  0.48467791  0.98382537     0.30600
H1266       H  0.01428924  0.40719327  0.07714303     0.30900
C1267       C  0.83674443  0.28377987  0.74766317     0.80100
N1268       N  0.87756775  0.31507588  0.74230742    -0.78200
C1269       C  0.88661069  0.35069957  0.72799915     0.82600
N1270       N  0.85526302  0.35551631  0.71916671    -0.78100
C1271       C  0.81445055  0.32562648  0.72439272     0.82700
N1272       N  0.80463551  0.28979732  0.73926753    -0.79900
C1273       C  0.72671068  0.02998952  0.77546992     0.80100
N1274       N  0.68595322  0.01833413  0.77956648    -0.78200
C1275       C  0.65486616  0.98221289  0.76998865     0.82600
N1276       N  0.66347940  0.45098264  0.76123573    -0.78100
C1277       C  0.70466895  0.46459451  0.75552243     0.82700
N1278       N  0.73693392  0.00500338  0.76135051    -0.79900
C1279       C  0.54967336  0.23375627  0.73706897     0.80100
N1280       N  0.55016655  0.19377819  0.73796501    -0.78200
C1281       C  0.51999961  0.15768057  0.75028048     0.82600
N1282       N  0.99190973  0.16231895  0.76141604    -0.78100
C1283       C  0.99221298  0.20269193  0.76144741     0.82700
N1284       N  0.51928951  0.23792141  0.74908050    -0.79900
C1285       C  0.52058998  0.03684384  0.75042022     0.80100
N1286       N  0.98941939  0.00039176  0.73870395    -0.78200
C1287       C  0.99201100  0.46472924  0.73816985     0.82600
N1288       N  0.52148312  0.45502399  0.75481923    -0.78100
C1289       C  0.55159241  0.99178150  0.75952504     0.82700
N1290       N  0.55198639  0.03219069  0.76027525    -0.79900
Zr1291     Zr  0.85358048  0.16733249  0.78814995     2.17500
O1292       O  0.85545016  0.14986394  0.74813518    -0.51400
O1293       O  0.84670789  0.22479164  0.76426770    -0.74600
O1294       O  0.79393946  0.09522855  0.77778063    -0.81400
O1295       O  0.97432060  0.23534509  0.79201132    -0.83200
O1296       O  0.74517549  0.07408924  0.80702388    -0.78800
O1297       O  0.92160903  0.17854719  0.77309414    -0.90400
O1298       O  0.81357245  0.25477779  0.78485734    -0.76400
O1299       O  0.80024104  0.17575370  0.80857532    -0.85900
O1300       O  0.88883299  0.24208081  0.80219412    -0.85600
O1301       O  0.82751368  0.11015879  0.81895958    -0.72300
O1302       O  0.90677212  0.16890953  0.81243416    -0.84500
Zr1303     Zr  0.86028675  0.19553283  0.87820038     2.26400
Zr1304     Zr  0.77481743  0.12014545  0.83946624     2.06300
Zr1305     Zr  0.94051717  0.24300917  0.82684361     2.10000
Zr1306     Zr  0.83580516  0.25038722  0.82274916     1.78800
O1307       O  0.00639802  0.24616388  0.83752691    -0.93300
O1308       O  0.76714441  0.24663547  0.82737280    -0.41100
O1309       O  0.88794274  0.25224699  0.84759433    -0.77700
O1310       O  0.80786454  0.19535701  0.85324661    -0.96400
O1311       O  0.82702020  0.12124507  0.86399063    -0.89700
O1312       O  0.91467456  0.18837366  0.85813046    -0.92500
C1313       C  0.82993180  0.25065581  0.76627632     1.01200
C1314       C  0.96084291  0.20674104  0.77601063     1.14100
C1315       C  0.75764291  0.06892679  0.78729495     1.04900
O1316       O  0.70720931  0.11506029  0.83086182    -0.94700
O1317       O  0.74011338  0.12235826  0.87534381    -0.90400
O1318       O  0.79172523  0.17652995  0.89609283    -0.83600
C1319       C  0.75276099  0.14851012  0.89241160     1.11600
O1320       O  0.88657965  0.06421071  0.81600713    -0.96700
Zr1321     Zr  0.88119190  0.11447531  0.84343427     1.88900
O1322       O  0.86797197  0.13913845  0.90265716    -0.73300
O1323       O  0.74127954  0.04261365  0.85498710    -0.52600
O1324       O  0.83827229  0.03386612  0.85318698    -0.97300
O1325       O  0.95446304  0.13024112  0.84248953    -0.54500
O1326       O  0.89240904  0.09987870  0.88230432    -0.73800
C1327       C  0.88053807  0.10945521  0.90101740     0.98500
O1328       O  0.86957188  0.22325414  0.91686395    -0.62700
O1329       O  0.97808185  0.31904802  0.80939677    -0.57500
O1330       O  0.91687156  0.27099552  0.88660858    -0.94100
O1331       O  0.96714646  0.29254461  0.85807730    -0.92600
O1332       O  0.88450199  0.32763581  0.80914909    -0.92900
O1333       O  0.83856161  0.30690644  0.84877415    -0.91700
C1334       C  0.95330002  0.29787076  0.87732169     1.17300
H1335       H  0.90284470  0.26527940  0.79033760     0.33300
H1336       H  0.78783644  0.20286982  0.86012753     0.44100
H1337       H  0.93705330  0.19307358  0.86821032     0.37700
H1338       H  0.81585858  0.07976412  0.81354606     0.34100
H1339       H  0.77098692  0.27508656  0.82003299     0.25900
H1340       H  0.71165786  0.02877421  0.85018180     0.31900
H1341       H  0.81758940  0.03199102  0.86502852     0.37800
H1342       H  0.86613924  0.33953339  0.80349942     0.32200
H1343       H  0.96808043  0.33689336  0.81819502     0.31100
H1344       H  0.52226513  0.25240365  0.82543594     0.32800
H1345       H  0.96793945  0.15016062  0.85536341     0.31800
H1346       H  0.82857916  0.29045398  0.86369728     0.35800
H1347       H  0.85345671  0.23986908  0.91801403     0.28500
H1348       H  0.82837229  0.14487585  0.74193238     0.32700
H1349       H  0.90541849  0.05403492  0.82281125     0.35600
H1350       H  0.00783366  0.33097774  0.81366603     0.28200
H1351       H  0.85355861  0.19593833  0.92692990     0.41100
H1352       H  0.68595231  0.08288681  0.83410291     0.31100
H1353       H  0.74845142  0.22251763  0.81717664     0.38700
H1354       H  0.96760617  0.14996772  0.82870951     0.30600
H1355       H  0.75384811  0.02762712  0.84581176     0.30600
H1356       H  0.85397577  0.11982861  0.74803294     0.30900
C1357       C  0.62360699  0.16896882  0.56592645     0.80100
N1358       N  0.61926015  0.20152529  0.57693689    -0.78200
C1359       C  0.65402960  0.23772796  0.58495185     0.82600
N1360       N  0.69251318  0.24083735  0.58218366    -0.78100
C1361       C  0.69675406  0.20842774  0.57134991     0.82700
N1362       N  0.66237378  0.17246892  0.56323714    -0.79900
C1363       C  0.56331652  0.38046783  0.60559327     0.80100
N1364       N  0.52226778  0.34721457  0.60601512    -0.78200
C1365       C  0.49540427  0.34868882  0.59090258     0.82600
N1366       N  0.50939129  0.38353401  0.57553048    -0.78100
C1367       C  0.55026668  0.41707591  0.57494023     0.82700
N1368       N  0.57769878  0.41555495  0.58986105    -0.79900
C1369       C  0.82490876  0.47072697  0.59255461     0.80100
N1370       N  0.81957012  0.50780403  0.59179525    -0.78200
C1371       C  0.84141404  0.04306295  0.57823255     0.82600
N1372       N  0.87219407  0.04374989  0.56472583    -0.78100
C1373       C  0.88032453  0.50675673  0.56447836     0.82700
N1374       N  0.85604949  0.47016001  0.57901203    -0.79900
C1375       C  0.80681295  0.20649462  0.57612743     0.78300
N1376       N  0.84423783  0.24397040  0.57995430    -0.78200
C1377       C  0.87902009  0.23981367  0.58371716     0.82600
N1378       N  0.87631022  0.19837804  0.58359540    -0.78100
C1379       C  0.83879924  0.16108108  0.57988549     0.82700
N1380       N  0.80407259  0.16509774  0.57617157    -0.79900
Zr1381     Zr  0.69059424  0.33958403  0.71185355     2.17500
O1382       O  0.68562251  0.31266132  0.75129107    -0.51400
O1383       O  0.69827624  0.39972361  0.73746722    -0.74600
O1384       O  0.74752744  0.32354661  0.72224933    -0.81400
O1385       O  0.57083229  0.29263363  0.70877130    -0.83200
O1386       O  0.79631727  0.35408906  0.69296068    -0.78800
O1387       O  0.62055869  0.27953353  0.72481410    -0.90400
O1388       O  0.72862175  0.46766746  0.71817593    -0.76400
O1389       O  0.74718521  0.40368576  0.69190026    -0.85900
O1390       O  0.66045572  0.38488300  0.69883848    -0.85600
O1391       O  0.71365322  0.31015673  0.68072640    -0.72300
O1392       O  0.63475254  0.29353284  0.68735180    -0.84500
Zr1393     Zr  0.68580137  0.37356559  0.62328558     2.26400
Zr1394     Zr  0.76925897  0.37489006  0.66020030     2.06300
Zr1395     Zr  0.60567277  0.33920767  0.67411786     2.10000
Zr1396     Zr  0.71674920  0.44828199  0.67884251     1.78800
O1397       O  0.53370853  0.28025018  0.66749152    -0.93300
O1398       O  0.79054949  0.50754164  0.67881156    -0.41100
O1399       O  0.66158849  0.40323130  0.65368783    -0.77700
O1400       O  0.74103529  0.42228315  0.64782067    -0.96400
O1401       O  0.71383364  0.32697796  0.63605111    -0.89700
O1402       O  0.62834915  0.31058667  0.64320715    -0.92500
C1403       C  0.71291904  0.44291708  0.73625612     1.01200
C1404       C  0.58229326  0.27173566  0.72309033     1.14100
C1405       C  0.78352386  0.33423888  0.71268899     1.04900
O1406       O  0.84191988  0.43207819  0.66670609    -0.94700
O1407       O  0.80651133  0.41795895  0.62455841    -0.90400
O1408       O  0.75505339  0.42095502  0.60441181    -0.83600
C1409       C  0.79395928  0.43219479  0.60741722     1.11600
O1410       O  0.65584032  0.20569932  0.68182537    -0.96700
Zr1411     Zr  0.65698270  0.26469222  0.65673191     1.88900
O1412       O  0.67433345  0.30931479  0.60000142    -0.73300
O1413       O  0.79310881  0.32538222  0.64367103    -0.52600
O1414       O  0.69752764  0.23304623  0.63869497    -0.97300
O1415       O  0.58569172  0.20123721  0.66333647    -0.54500
O1416       O  0.62842772  0.24573397  0.61974038    -0.73800
C1417       C  0.65009366  0.26619159  0.60183405     0.98500
O1418       O  0.68072287  0.40170226  0.58555092    -0.62700
O1419       O  0.57936338  0.38657396  0.69080609    -0.57500
O1420       O  0.62974027  0.38885918  0.61296708    -0.94100
O1421       O  0.57722036  0.35561081  0.64031772    -0.92600
O1422       O  0.67548460  0.48519940  0.68846217    -0.92900
O1423       O  0.72907720  0.51071303  0.65270748    -0.91700
C1424       C  0.59214154  0.37542263  0.62076729     1.17300
H1425       H  0.64762444  0.39386431  0.71076849     0.33300
H1426       H  0.76227294  0.45044649  0.64075803     0.44100
H1427       H  0.60467327  0.29491315  0.63350014     0.37700
H1428       H  0.72341963  0.28970522  0.68584947     0.34100
H1429       H  0.78215380  0.03421176  0.68613288     0.25900
H1430       H  0.78825579  0.32591832  0.62718407     0.31900
H1431       H  0.67614144  0.20451702  0.63207573     0.37800
H1432       H  0.64929961  0.46891476  0.67988322     0.32200
H1433       H  0.56408798  0.39214965  0.67849245     0.31100
H1434       H  0.51563372  0.29279219  0.67298126     0.32800
H1435       H  0.56725528  0.21045512  0.65525339     0.31800
H1436       H  0.71932423  0.49639923  0.63788728     0.35800
H1437       H  0.69881460  0.43510072  0.58559403     0.28500
H1438       H  0.71306320  0.33316001  0.75802864     0.32700
H1439       H  0.64481010  0.17815351  0.67269972     0.35600
H1440       H  0.55682907  0.36624430  0.70195469     0.28200
H1441       H  0.69551113  0.39129276  0.57491750     0.41100
H1442       H  0.83938112  0.45456113  0.67619167     0.31100
H1443       H  0.80266792  0.49914611  0.69175552     0.38700
H1444       H  0.57896902  0.20216633  0.67966976     0.30600
H1445       H  0.82426130  0.34231452  0.64475078     0.30600
H1446       H  0.68467279  0.28293333  0.75058512     0.30900
C1447       C  0.92543302  0.36921800  0.43258427     0.80100
N1448       N  0.88674842  0.36315416  0.43895814    -0.78200
C1449       C  0.85133060  0.32562217  0.43300496     0.82600
N1450       N  0.85439208  0.29441678  0.42043571    -0.78100
C1451       C  0.89273702  0.30021867  0.41384269     0.82700
N1452       N  0.92860246  0.33776454  0.41986065    -0.79900
C1453       C  0.98834505  0.17064631  0.39727836     0.80100
N1454       N  0.02974588  0.20321231  0.39620792    -0.78200
C1455       C  0.05763219  0.19915012  0.40967643     0.82600
N1456       N  0.04438388  0.16245086  0.42376975    -0.78100
C1457       C  0.00321733  0.12989216  0.42500700     0.82700
N1458       N  0.97482519  0.13408937  0.41195669    -0.79900
C1459       C  0.71993351  0.05541383  0.40837449     0.80100
N1460       N  0.73159128  0.02402117  0.41391628    -0.78200
C1461       C  0.70871040  0.99023574  0.42931527     0.82600
N1462       N  0.67395234  0.98748720  0.43957758    -0.78100
C1463       C  0.66112881  0.01798581  0.43442978     0.82700
N1464       N  0.68407134  0.05240476  0.41854336    -0.79900
C1465       C  0.74132549  0.32578411  0.43537654     0.80100
N1466       N  0.74630651  0.36782518  0.43760682    -0.78200
C1467       C  0.71466993  0.37609876  0.43221282     0.82600
N1468       N  0.67816322  0.34267263  0.42432257    -0.78100
C1469       C  0.67317783  0.30063347  0.42194522     0.82700
N1470       N  0.70485899  0.29202877  0.42738338    -0.79900
Zr1471     Zr  0.52975861  0.01556715  0.45320108     2.17500
O1472       O  0.53881739  0.02262576  0.41174822    -0.51400
O1473       O  0.97815449  0.44611733  0.43564555    -0.74600
O1474       O  0.59748232  0.02265354  0.43928967    -0.81400
O1475       O  0.96515591  0.08008847  0.45644087    -0.83200
O1476       O  0.62323874  0.50037041  0.46795467    -0.78800
O1477       O  0.01618220  0.07245760  0.43689257    -0.90400
O1478       O  0.97179289  0.39490101  0.46219267    -0.76400
O1479       O  0.52739136  0.45671539  0.47709819    -0.85900
O1480       O  0.95965889  0.98104761  0.47266397    -0.85600
O1481       O  0.58689657  0.05553586  0.47866120    -0.72300
O1482       O  0.52518618  0.07332756  0.47386941    -0.84500
Zr1483     Zr  0.51511249  0.52085903  0.54257601     2.26400
Zr1484     Zr  0.58317149  0.49421549  0.50308517     2.06300
Zr1485     Zr  0.95683419  0.04008319  0.49332915     2.10000
Zr1486     Zr  0.96197424  0.42541735  0.49688432     1.78800
O1487       O  0.94941977  0.10679036  0.50003091    -0.93300
O1488       O  0.96203955  0.35535787  0.50736457    -0.41100
O1489       O  0.95750787  0.48247254  0.51819396    -0.77700
O1490       O  0.51459891  0.45946965  0.52200034    -0.96400
O1491       O  0.58195913  0.05828784  0.52445188    -0.89700
O1492       O  0.51380288  0.07936945  0.51875386    -0.92500
C1493       C  0.96207029  0.40508368  0.44321640     1.01200
C1494       C  0.99213342  0.09015250  0.43968226     1.14100
C1495       C  0.62515139  0.01453020  0.44839723     1.04900
O1496       O  0.59299795  0.42832134  0.49936340    -0.94700
O1497       O  0.58132658  0.45922884  0.54051658    -0.90400
O1498       O  0.53939632  0.47568067  0.56336432    -0.83600
C1499       C  0.56089985  0.45553736  0.55937010     1.11600
O1500       O  0.62458425  0.16100134  0.46658575    -0.96700
Zr1501     Zr  0.58077172  0.11312293  0.49871172     1.88900
O1502       O  0.57084587  0.09359630  0.55917665    -0.73300
O1503       O  0.65524244  0.05310503  0.51592630    -0.52600
O1504       O  0.65507438  0.14540431  0.50767551    -0.97300
O1505       O  0.56789981  0.17598199  0.48965930    -0.54500
O1506       O  0.58504242  0.14994799  0.53350204    -0.73800
C1507       C  0.58964583  0.13562134  0.55273963     0.98500
O1508       O  0.99682202  0.52002418  0.58381199    -0.62700
O1509       O  0.88466929  0.99779311  0.48051785    -0.57500
O1510       O  0.94427669  0.00780006  0.55804990    -0.94100
O1511       O  0.91405482  0.02510291  0.52869946    -0.92600
O1512       O  0.88953888  0.39644550  0.48509613    -0.92900
O1513       O  0.91367589  0.37686064  0.52745913    -0.91700
C1514       C  0.91437809  0.01273298  0.54957804     1.17300
H1515       H  0.93940289  0.46834515  0.46084446     0.33300
H1516       H  0.50803382  0.43281231  0.53119221     0.44100
H1517       H  0.50900626  0.10084924  0.52712603     0.37700
H1518       H  0.61410995  0.07203842  0.47083708     0.34100
H1519       H  0.94056164  0.33208907  0.49777866     0.25900
H1520       H  0.66373549  0.03555874  0.52614579     0.31900
H1521       H  0.66329065  0.17596894  0.51323460     0.37800
H1522       H  0.87693153  0.36304410  0.48618549     0.32200
H1523       H  0.87045541  0.97169803  0.49150666     0.31100
H1524       H  0.92139873  0.09920014  0.49418807     0.32800
H1525       H  0.54787031  0.17456086  0.50178734     0.31800
H1526       H  0.92506755  0.39396547  0.54144488     0.35800
H1527       H  0.98459187  0.48794069  0.58909295     0.28500
H1528       H  0.54315639  0.99714352  0.40710076     0.32700
H1529       H  0.64297119  0.19112309  0.47287045     0.35600
H1530       H  0.87530651  0.51294642  0.47583108     0.28200
H1531       H  0.02423783  0.53580178  0.59137568     0.41100
H1532       H  0.56623410  0.40486156  0.49312469     0.31100
H1533       H  0.98941497  0.35964864  0.50116355     0.38700
H1534       H  0.55090817  0.16686473  0.47583764     0.30600
H1535       H  0.67339478  0.05959088  0.50199769     0.30600
H1536       H  0.56629876  0.05026199  0.40834861     0.30900
C1537       C  0.78651573  0.47735625  0.23241436     0.80100
N1538       N  0.82498551  0.48196902  0.22686080    -0.78200
C1539       C  0.85907773  0.01486010  0.23661520     0.82600
N1540       N  0.85601762  0.04649514  0.24882161    -0.78100
C1541       C  0.81791031  0.04312707  0.25352369     0.82700
N1542       N  0.78208788  0.00724688  0.24592216    -0.79900
C1543       C  0.72800158  0.18930138  0.27075709     0.80100
N1544       N  0.68688379  0.15614445  0.27090988    -0.78200
C1545       C  0.65975904  0.15939581  0.25658548     0.82600
N1546       N  0.67350812  0.19592065  0.24235990    -0.78100
C1547       C  0.71437265  0.22937253  0.24192257     0.82700
N1548       N  0.74222291  0.22601494  0.25595002    -0.79900
C1549       C  0.48653784  0.27918071  0.25721562     0.80100
N1550       N  0.51861846  0.27980100  0.24412283    -0.78200
C1551       C  0.54194906  0.31627006  0.22944410     0.82600
N1552       N  0.53396119  0.35135243  0.22862604    -0.78100
C1553       C  0.50333778  0.35105728  0.24203890     0.82700
N1554       N  0.47954640  0.31508453  0.25610538    -0.79900
C1555       C  0.47507636  0.02068937  0.23242842     0.80100
N1556       N  0.46899551  0.47428029  0.23824958    -0.78200
C1557       C  0.50313883  0.47004733  0.24314749     0.82600
N1558       N  0.54197299  0.01152035  0.24514466    -0.78100
C1559       C  0.54478193  0.05300231  0.24471808     0.82700
N1560       N  0.51124757  0.05769560  0.23843181    -0.79900
Zr1561     Zr  0.69438975  0.32876071  0.11957805     2.17500
O1562       O  0.70454943  0.33826884  0.07817830    -0.51400
O1563       O  0.64265965  0.25886729  0.10235879    -0.74600
O1564       O  0.76265206  0.33974713  0.10567232    -0.81400
O1565       O  0.62774108  0.39112234  0.12206663    -0.83200
O1566       O  0.78941270  0.31846419  0.13524152    -0.78800
O1567       O  0.67828126  0.38351771  0.10214080    -0.90400
O1568       O  0.63729893  0.20700221  0.12824773    -0.76400
O1569       O  0.69409620  0.27163144  0.14427322    -0.85900
O1570       O  0.62536040  0.29300375  0.13779238    -0.85600
O1571       O  0.75057605  0.36839904  0.14570277    -0.72300
O1572       O  0.68832719  0.38563622  0.14012539    -0.84500
Zr1573     Zr  0.67681776  0.33205444  0.20978409     2.26400
Zr1574     Zr  0.74903130  0.31048649  0.17076684     2.06300
Zr1575     Zr  0.62034282  0.35023449  0.15870193     2.10000
Zr1576     Zr  0.62567174  0.23679465  0.16271407     1.78800
O1577       O  0.60722914  0.41333469  0.16508998    -0.93300
O1578       O  0.63054117  0.17024921  0.17500761    -0.41100
O1579       O  0.62050610  0.29385769  0.18377066    -0.77700
O1580       O  0.67974383  0.27254800  0.18896853    -0.96400
O1581       O  0.74454028  0.36904184  0.19093384    -0.89700
O1582       O  0.67511129  0.38839672  0.18531241    -0.92500
C1583       C  0.62790624  0.21765455  0.10929505     1.01200
C1584       C  0.65370919  0.40045004  0.10487007     1.14100
C1585       C  0.79044244  0.33159195  0.11435328     1.04900
O1586       O  0.76574868  0.24914459  0.16799985    -0.94700
O1587       O  0.74724865  0.27546445  0.20848742    -0.90400
O1588       O  0.70052827  0.28614975  0.23049877    -0.83600
C1589       C  0.72456501  0.26873438  0.22689346     1.11600
O1590       O  0.78934714  0.47551382  0.13539011    -0.96700
Zr1591     Zr  0.74263040  0.42462219  0.16592869     1.88900
O1592       O  0.73298317  0.40207418  0.22576864    -0.73300
O1593       O  0.82038185  0.36058244  0.18294645    -0.52600
O1594       O  0.81687390  0.46068777  0.17553684    -0.97300
O1595       O  0.72595877  0.48419902  0.15552550    -0.54500
O1596       O  0.74419311  0.45900545  0.20129439    -0.73800
C1597       C  0.75066489  0.44439747  0.21997320     0.98500
O1598       O  0.65821864  0.32882586  0.25022914    -0.62700
O1599       O  0.54981879  0.30404834  0.14430215    -0.57500
O1600       O  0.60623202  0.31537980  0.22306703    -0.94100
O1601       O  0.57692311  0.33383559  0.19364014    -0.92600
O1602       O  0.55408217  0.19996613  0.14880867    -0.92900
O1603       O  0.57364641  0.18909028  0.19214270    -0.91700
C1604       C  0.57668864  0.32068340  0.21439361     1.17300
H1605       H  0.60273636  0.28035473  0.12718931     0.33300
H1606       H  0.67382356  0.24570198  0.19776794     0.44100
H1607       H  0.66931882  0.40898097  0.19387775     0.37700
H1608       H  0.77797750  0.38594406  0.13820330     0.34100
H1609       H  0.61089728  0.14571909  0.16529122     0.25900
H1610       H  0.83314362  0.34066470  0.18462828     0.31900
H1611       H  0.82415635  0.49187433  0.17964479     0.37800
H1612       H  0.54711361  0.16805591  0.14683378     0.32200
H1613       H  0.53245643  0.28532052  0.15761910     0.31100
H1614       H  0.57801372  0.40257640  0.16014241     0.32800
H1615       H  0.70786468  0.48441930  0.16832271     0.31800
H1616       H  0.58721798  0.20182920  0.20665548     0.35800
H1617       H  0.64501574  0.29642887  0.25510698     0.28500
H1618       H  0.71110393  0.31451028  0.07316314     0.32700
H1619       H  0.80297574  0.50628236  0.14161336     0.35600
H1620       H  0.53931808  0.32564721  0.14122279     0.28200
H1621       H  0.68548098  0.34336841  0.25799714     0.41100
H1622       H  0.73933530  0.22298106  0.16303791     0.31100
H1623       H  0.65904498  0.17667135  0.16960113     0.38700
H1624       H  0.70660327  0.47218664  0.14272014     0.30600
H1625       H  0.83521934  0.38023735  0.16935997     0.30600
H1626       H  0.73095484  0.36731804  0.07510724     0.30900
Zr1627     Zr  0.85032380  0.18233072  0.28967201     2.17500
O1628       O  0.84320962  0.20519440  0.25105466    -0.51400
O1629       O  0.83647839  0.11517474  0.26787101    -0.74600
O1630       O  0.91854791  0.23040883  0.27005609    -0.81400
O1631       O  0.74154430  0.16362804  0.30550239    -0.83200
O1632       O  0.97233831  0.23343889  0.29044564    -0.78800
O1633       O  0.79441486  0.19721386  0.27840413    -0.90400
O1634       O  0.80228098  0.05208077  0.29068943    -0.76400
O1635       O  0.88405013  0.14291886  0.30465867    -0.85900
O1636       O  0.79574939  0.11953478  0.31121085    -0.85600
O1637       O  0.90448511  0.23742341  0.31284258    -0.72300
O1638       O  0.82378004  0.21284586  0.31847791    -0.84500
Zr1639     Zr  0.85803506  0.16223219  0.37869115     2.26400
Zr1640     Zr  0.93830342  0.19717204  0.32768069     2.06300
Zr1641     Zr  0.76984122  0.14947935  0.34022811     2.10000
Zr1642     Zr  0.83007490  0.08090153  0.32698266     1.78800
O1643       O  0.73853335  0.19469481  0.35355502    -0.93300
O1644       O  0.87627706  0.05201562  0.31361997    -0.41100
O1645       O  0.80332695  0.10964995  0.35564327    -0.77700
O1646       O  0.88562660  0.13268458  0.34989294    -0.96400
O1647       O  0.91220065  0.22569659  0.35737631    -0.89700
O1648       O  0.82350759  0.20164209  0.36409480    -0.92500
C1649       C  0.81673832  0.07185281  0.27134210     1.01200
C1650       C  0.75662736  0.18351938  0.28594382     1.14100
C1651       C  0.95799130  0.24438733  0.27296552     1.04900
O1652       O  0.97107457  0.15254541  0.31577343    -0.94700
O1653       O  0.97161196  0.19087883  0.36205115    -0.90400
O1654       O  0.92103085  0.16065348  0.39059426    -0.83600
C1655       C  0.95854237  0.17459616  0.38238774     1.11600
O1656       O  0.87432845  0.32073254  0.31752160    -0.96700
Zr1657     Zr  0.87780248  0.26442398  0.34254568     1.88900
O1658       O  0.86940357  0.22681018  0.40100247    -0.73300
O1659       O  0.00569278  0.26550363  0.33276655    -0.52600
O1660       O  0.94348646  0.33442567  0.33360026    -0.97300
O1661       O  0.83581051  0.29253951  0.36228597    -0.54500
O1662       O  0.91273675  0.28642151  0.37824080    -0.73800
C1663       C  0.89350628  0.26940764  0.39726088     0.98500
O1664       O  0.85214423  0.13207702  0.41752627    -0.62700
O1665       O  0.70025615  0.08446327  0.33499586    -0.57500
O1666       O  0.78874847  0.10584818  0.39471159    -0.94100
O1667       O  0.73490827  0.10680152  0.37605054    -0.92600
O1668       O  0.76344082  0.01108893  0.33397190    -0.92900
O1669       O  0.83013183  0.02876573  0.35617732    -0.91700
C1670       C  0.74920087  0.09271136  0.39237209     1.17300
H1671       H  0.77269194  0.10061518  0.30167735     0.33300
H1672       H  0.89807709  0.11573926  0.35644884     0.44100
H1673       H  0.81083209  0.21071231  0.37606462     0.37700
H1674       H  0.92421546  0.26514948  0.30478548     0.34100
H1675       H  0.85676379  0.02084279  0.30889666     0.25900
H1676       H  0.02699295  0.26020306  0.32460570     0.31900
H1677       H  0.94733621  0.35397859  0.34666599     0.37800
H1678       H  0.74363371  0.02115448  0.33977875     0.32200
H1679       H  0.68087049  0.09727885  0.33435146     0.31100
H1680       H  0.73657736  0.19074061  0.37035080     0.32800
H1681       H  0.81340263  0.28823874  0.35167542     0.31800
H1682       H  0.82891651  0.04231462  0.37077412     0.35800
H1683       H  0.85932212  0.10740254  0.41652818     0.28500
H1684       H  0.85797361  0.19392631  0.24093015     0.32700
H1685       H  0.85178747  0.30283976  0.30687027     0.35600
H1686       H  0.70126777  0.07469090  0.31933727     0.28200
H1687       H  0.87553435  0.15628440  0.42581225     0.41100
H1688       H  0.96310468  0.14542444  0.29975695     0.31100
H1689       H  0.88965972  0.06910599  0.29917323     0.38700
H1690       H  0.85443096  0.32579274  0.36258130     0.30600
H1691       H  0.00435685  0.28966477  0.32362327     0.30600
H1692       H  0.86076662  0.23868076  0.24999166     0.30900
C1693       C  0.50002457  0.42648446  0.24314516    -0.13400
C1694       C  0.49911076  0.39063120  0.24271646    -0.14900
C1695       C  0.58337497  0.09158691  0.25088192    -0.13400
C1696       C  0.61757448  0.12275453  0.25481855    -0.14900
C1697       C  0.89933209  0.01752485  0.23354606    -0.13400
C1698       C  0.93317098  0.01924167  0.23364341    -0.14900
C1699       C  0.71976341  0.45555791  0.43235395    -0.13400
C1700       C  0.72044504  0.42059658  0.43344538    -0.14900
C1701       C  0.59880790  0.23599059  0.41034840    -0.13400
C1702       C  0.63379139  0.26531278  0.41444472    -0.14900
C1703       C  0.77703102  0.31960219  0.43840467    -0.13400
C1704       C  0.81067008  0.32089107  0.43779201    -0.14900
C1705       C  0.83639320  0.08228633  0.57896842    -0.13400
C1706       C  0.83609399  0.11758723  0.57951775    -0.14900
C1707       C  0.45294513  0.31223957  0.59017057    -0.13400
C1708       C  0.91891201  0.27911216  0.58740847    -0.14900
C1709       C  0.73678045  0.20998983  0.57077827    -0.13400
C1710       C  0.76971993  0.21002088  0.57253313    -0.14900
C1711       C  0.52060504  0.07950787  0.75091905    -0.13400
C1712       C  0.52036986  0.11518470  0.75082946    -0.14900
C1713       C  0.58528437  0.98596634  0.76763197    -0.13400
C1714       C  0.61452683  0.97938868  0.77025009    -0.14900
C1715       C  0.92748561  0.38921957  0.72683671    -0.13400
C1716       C  0.95770976  0.42533593  0.72965269    -0.14900
C1717       C  0.59071456  0.37260657  0.90441307    -0.13400
C1718       C  0.61898411  0.36456318  0.90760124    -0.14900
C1719       C  0.69017554  0.27523294  0.91854128    -0.13400
C1720       C  0.69074629  0.23970002  0.91805618    -0.14900
C1721       C  0.75635454  0.43495946  0.93625481    -0.13400
C1722       C  0.78534054  0.47191392  0.93938307    -0.14900
C1723       C  0.80016743  0.07311510  0.06925106    -0.13400
C1724       C  0.76483467  0.04242950  0.06722383    -0.14900
C1725       C  0.87460102  0.22977940  0.08767730    -0.13400
C1726       C  0.87204657  0.26360484  0.08889672    -0.14900
C1727       C  0.98198155  0.14595507  0.08823144    -0.13400
C1728       C  0.94879636  0.14516327  0.08622070    -0.14900
C1729       C  0.59343106  0.68383445  0.09456333     0.80100
N1730       N  0.55598811  0.68377704  0.09343330    -0.78200
C1731       C  0.01886970  0.64226769  0.08882776     0.82600
N1732       N  0.02244946  0.60691164  0.08123433    -0.78100
C1733       C  0.56135591  0.61023338  0.08050114     0.82700
N1734       N  0.59625905  0.64704066  0.08791878    -0.79900
C1735       C  0.88242678  0.87074317  0.07219333     0.80100
N1736       N  0.84971054  0.86953040  0.08492100    -0.78200
C1737       C  0.82598040  0.83294005  0.09948167     0.82600
N1738       N  0.83461039  0.79830192  0.10078077    -0.78100
C1739       C  0.86617171  0.79926953  0.08783994     0.82700
N1740       N  0.89011671  0.83536279  0.07381800    -0.79900
C1741       C  0.65053630  0.97856919  0.05938129     0.80100
N1742       N  0.68857052  0.50718479  0.05752419    -0.78200
C1743       C  0.71748363  0.50326750  0.07003232     0.82600
N1744       N  0.70969874  0.97401928  0.08487243    -0.78100
C1745       C  0.66842050  0.94279106  0.08855882     0.82700
N1746       N  0.63843492  0.94510039  0.07591850    -0.79900
C1747       C  0.90695442  0.64061779  0.08478779     0.80100
N1748       N  0.87062788  0.60331946  0.07922119    -0.78200
C1749       C  0.83524903  0.60668692  0.07611235     0.82600
N1750       N  0.83617071  0.64684117  0.07872345    -0.78100
C1751       C  0.87247499  0.68380395  0.08425354     0.82700
N1752       N  0.90789106  0.68081166  0.08721580    -0.79900
C1753       C  0.87428433  0.58082157  0.92100363     0.80100
N1754       N  0.83371592  0.54731772  0.92482273    -0.78200
C1755       C  0.82448413  0.01177997  0.94096445     0.82600
N1756       N  0.85599595  0.01056869  0.95184950    -0.78100
C1757       C  0.89634021  0.54338060  0.94742785     0.82700
N1758       N  0.90637691  0.57784639  0.93158304    -0.79900
C1759       C  0.65904298  0.61930586  0.93060303     0.80100
N1760       N  0.65972178  0.65988358  0.93088179    -0.78200
C1761       C  0.69164110  0.69721268  0.92029585     0.82600
N1762       N  0.72306643  0.69381961  0.90913477    -0.78100
C1763       C  0.72247977  0.65322673  0.90845134     0.82700
N1764       N  0.69037056  0.61579226  0.91922488    -0.79900
C1765       C  0.68818361  0.81665701  0.92367637     0.80100
N1766       N  0.72139430  0.85402059  0.93209085    -0.78200
C1767       C  0.71940013  0.89298108  0.93400193     0.82600
N1768       N  0.68512025  0.89492416  0.92726876    -0.78100
C1769       C  0.65231547  0.85838752  0.91876122     0.82700
N1770       N  0.65348518  0.81890489  0.91687985    -0.79900
C1771       C  0.98550908  0.83880474  0.88946292     0.80100
N1772       N  0.52330573  0.84438732  0.89092365    -0.78200
C1773       C  0.55287797  0.87574003  0.90374413     0.82600
N1774       N  0.54359027  0.90329631  0.91618176    -0.78100
C1775       C  0.50430778  0.89914137  0.91569684     0.82700
N1776       N  0.97516104  0.86402299  0.90326231    -0.79900
Zr1777     Zr  0.52164331  0.97676852  0.04499710     2.17500
O1778       O  0.01323799  0.93724303  0.08193628    -0.51400
O1779       O  0.53630531  0.53399497  0.07240119    -0.74600
O1780       O  0.58145412  0.96577589  0.05367518    -0.81400
O1781       O  0.90015818  0.92842340  0.04268146    -0.83200
O1782       O  0.63057679  0.50426296  0.02767427    -0.78800
O1783       O  0.95190921  0.92116353  0.06027790    -0.90400
O1784       O  0.58517910  0.58632620  0.04947265    -0.76400
O1785       O  0.57679516  0.54202878  0.02679172    -0.85900
O1786       O  0.98996504  0.52182936  0.03462243    -0.85600
O1787       O  0.54398805  0.95084312  0.01221729    -0.72300
O1788       O  0.96616172  0.93304676  0.02020379    -0.84500
Zr1789     Zr  0.51808223  0.52312311  0.95806118     2.26400
Zr1790     Zr  0.59937932  0.51723111  0.99420848     2.06300
Zr1791     Zr  0.93699498  0.98020185  0.00947281     2.10000
Zr1792     Zr  0.54762497  0.58925557  0.01661897     1.78800
O1793       O  0.86744580  0.92181546  0.99852412    -0.93300
O1794       O  0.59222054  0.66755813  0.02748823    -0.41100
O1795       O  0.99150728  0.54604820  0.98991221    -0.77700
O1796       O  0.57298509  0.56759423  0.98416445    -0.96400
O1797       O  0.54366486  0.97534344  0.96891097    -0.89700
O1798       O  0.96023156  0.95608358  0.97656662    -0.92500
C1799       C  0.56424752  0.57509158  0.06825381     1.01200
C1800       C  0.91296977  0.91031409  0.05790562     1.14100
C1801       C  0.61935306  0.98275184  0.04549337     1.04900
O1802       O  0.67106788  0.57904153  0.99827646    -0.94700
O1803       O  0.63453638  0.55904505  0.95832405    -0.90400
O1804       O  0.58757307  0.57567289  0.94147328    -0.83600
C1805       C  0.62487361  0.58091144  0.94357416     1.11600
O1806       O  0.98149252  0.84468460  0.01105468    -0.96700
Zr1807     Zr  0.48602910  0.91047795  0.98755750     1.88900
O1808       O  0.51572990  0.96672897  0.93318421    -0.73300
O1809       O  0.62517429  0.96999785  0.97749940    -0.52600
O1810       O  0.52270190  0.87294061  0.97125082    -0.97300
O1811       O  0.91602404  0.84825535  0.98950999    -0.54500
O1812       O  0.46710666  0.89939720  0.94842457    -0.73800
C1813       C  0.49347131  0.92335371  0.93260837     0.98500
O1814       O  0.51011322  0.54631461  0.91968879    -0.62700
O1815       O  0.90471032  0.51843609  0.03001503    -0.57500
O1816       O  0.96153768  0.54197837  0.94885511    -0.94100
O1817       O  0.91455702  0.01193940  0.97863711    -0.92600
O1818       O  0.99475156  0.60631581  0.03197523    -0.92900
O1819       O  0.57777220  0.65414622  0.98975222    -0.91700
C1820       C  0.92774750  0.03333955  0.95922067     1.17300
H1821       H  0.97833332  0.52880716  0.04790733     0.33300
H1822       H  0.59583430  0.59624211  0.97858553     0.44100
H1823       H  0.93725270  0.94104054  0.96634261     0.37700
H1824       H  0.55441765  0.93051511  0.01661673     0.34100
H1825       H  0.57815108  0.67122032  0.04126368     0.25900
H1826       H  0.62407213  0.97353516  0.96080703     0.31900
H1827       H  0.54808072  0.88273169  0.98045384     0.37800
H1828       H  0.49604986  0.63093596  0.02157854     0.32200
H1829       H  0.91355999  0.04707537  0.02030559     0.31100
H1830       H  0.84717696  0.92686439  0.00787917     0.32800
H1831       H  0.90087158  0.85902492  0.97951648     0.31800
H1832       H  0.55613528  0.64617582  0.97810261     0.35800
H1833       H  0.52925859  0.57951346  0.91837968     0.28500
H1834       H  0.03749135  0.95801216  0.09098174     0.32700
H1835       H  0.96955065  0.81849451  0.00096059     0.35600
H1836       H  0.87384224  0.49740891  0.03026557     0.28200
H1837       H  0.52324058  0.53354950  0.90934690     0.41100
H1838       H  0.66794830  0.59928460  0.00916970     0.31100
H1839       H  0.61855494  0.66914839  0.03293921     0.38700
H1840       H  0.90542718  0.84891404  0.00508773     0.30600
H1841       H  0.65574899  0.98552471  0.98056086     0.30600
H1842       H  0.01794132  0.91131599  0.07884078     0.30900
C1843       C  0.83592035  0.78204679  0.74675109     0.80100
N1844       N  0.87677458  0.81197427  0.74067617    -0.78200
C1845       C  0.88616137  0.84668955  0.72569356     0.82600
N1846       N  0.85499490  0.85187318  0.71688391    -0.78100
C1847       C  0.81415893  0.82340207  0.72288255     0.82700
N1848       N  0.80411088  0.78863705  0.73846804    -0.79900
C1849       C  0.72539195  0.52716154  0.77890998     0.80100
N1850       N  0.68457684  0.51224251  0.78489149    -0.78200
C1851       C  0.65366151  0.47484102  0.77611152     0.82600
N1852       N  0.66427150  0.95647879  0.75618412    -0.78100
C1853       C  0.70528672  0.96703356  0.75225904     0.82700
N1854       N  0.73589730  0.50399876  0.76373190    -0.79900
C1855       C  0.55219156  0.73221846  0.73814354     0.80100
N1856       N  0.55469295  0.69349459  0.74085331    -0.78200
C1857       C  0.52607878  0.65864348  0.75449575     0.82600
N1858       N  0.98994871  0.66353196  0.76177040    -0.78100
C1859       C  0.98952428  0.70355491  0.76149319     0.82700
N1860       N  0.52149463  0.73653133  0.74968534    -0.79900
C1861       C  0.52617704  0.53742230  0.75732285     0.80100
N1862       N  0.99146702  0.50452707  0.73932796    -0.78200
C1863       C  0.98959151  0.96028142  0.73825017     0.82600
N1864       N  0.52104242  0.95700196  0.74868653    -0.78100
C1865       C  0.55243793  0.48776171  0.76649029     0.82700
N1866       N  0.55547639  0.52952094  0.76761099    -0.79900
Zr1867     Zr  0.85132925  0.66720534  0.78902473     2.17500
O1868       O  0.85090614  0.64733810  0.74922911    -0.51400
O1869       O  0.84303724  0.72240657  0.76440767    -0.74600
O1870       O  0.79217123  0.59377888  0.77977797    -0.81400
O1871       O  0.97208983  0.73692152  0.79167068    -0.83200
O1872       O  0.74388274  0.57487181  0.80904560    -0.78800
O1873       O  0.91910547  0.67877292  0.77355422    -0.90400
O1874       O  0.81727444  0.76010639  0.78501649    -0.76400
O1875       O  0.79858430  0.67624017  0.80975105    -0.85900
O1876       O  0.88697567  0.74243503  0.80256928    -0.85600
O1877       O  0.82698049  0.61112418  0.82013093    -0.72300
O1878       O  0.90547006  0.67020569  0.81287279    -0.84500
Zr1879     Zr  0.86147232  0.69824499  0.87880582     2.26400
Zr1880     Zr  0.77492692  0.62155802  0.84103777     2.06300
Zr1881     Zr  0.93971391  0.74466964  0.82688846     2.10000
Zr1882     Zr  0.83469323  0.75134640  0.82346359     1.78800
O1883       O  0.00413203  0.74455248  0.83770798    -0.93300
O1884       O  0.76513206  0.74578490  0.82613440    -0.41100
O1885       O  0.88785458  0.75455430  0.84799190    -0.77700
O1886       O  0.80812396  0.69711882  0.85430703    -0.96400
O1887       O  0.82805823  0.62355591  0.86517237    -0.89700
O1888       O  0.91528909  0.69061978  0.85839648    -0.92500
C1889       C  0.82944857  0.75109712  0.76625885     1.01200
C1890       C  0.95830098  0.70757055  0.77603966     1.14100
C1891       C  0.75608185  0.56801824  0.78962535     1.04900
O1892       O  0.70669177  0.61703700  0.83515806    -0.94700
O1893       O  0.74173738  0.62288333  0.87752814    -0.90400
O1894       O  0.79341572  0.67933485  0.89717690    -0.83600
C1895       C  0.75454092  0.65019305  0.89410264     1.11600
O1896       O  0.89158208  0.56597742  0.81871533    -0.96700
Zr1897     Zr  0.88148432  0.61639167  0.84407579     1.88900
O1898       O  0.86830824  0.64134715  0.90310522    -0.73300
O1899       O  0.74001863  0.54276615  0.85473817    -0.52600
O1900       O  0.83255427  0.53617049  0.85208238    -0.97300
O1901       O  0.95427874  0.63081795  0.84147243    -0.54500
O1902       O  0.89457724  0.60366458  0.88286654    -0.73800
C1903       C  0.88165712  0.61235975  0.90148766     0.98500
O1904       O  0.87129656  0.72671832  0.91731577    -0.62700
O1905       O  0.97901125  0.81974843  0.80845492    -0.57500
O1906       O  0.91911885  0.77315390  0.88704330    -0.94100
O1907       O  0.96746041  0.79606191  0.85743218    -0.92600
O1908       O  0.88436900  0.82994548  0.81247720    -0.92900
O1909       O  0.83069991  0.80415739  0.84970486    -0.91700
C1910       C  0.95469534  0.80080111  0.87713287     1.17300
H1911       H  0.90045150  0.76525788  0.79050441     0.33300
H1912       H  0.78809794  0.70449320  0.86133621     0.44100
H1913       H  0.93805556  0.69546705  0.86820713     0.37700
H1914       H  0.81530206  0.58047998  0.81507952     0.34100
H1915       H  0.76821026  0.77251742  0.81727429     0.25900
H1916       H  0.74889743  0.54382687  0.87062434     0.31900
H1917       H  0.81721179  0.53520379  0.86640166     0.37800
H1918       H  0.90660314  0.83979584  0.82388058     0.32200
H1919       H  0.97382097  0.84004991  0.81830585     0.31100
H1920       H  0.52753970  0.78346301  0.83896012     0.32800
H1921       H  0.96770423  0.64747152  0.85527772     0.31800
H1922       H  0.84460564  0.80145962  0.86351123     0.35800
H1923       H  0.85541918  0.74360132  0.91837681     0.28500
H1924       H  0.82333701  0.64159892  0.74341049     0.32700
H1925       H  0.90041368  0.54815941  0.82854232     0.35600
H1926       H  0.00912630  0.82881484  0.81048389     0.28200
H1927       H  0.85519769  0.69960682  0.92750298     0.41100
H1928       H  0.71040200  0.64669320  0.83984578     0.31100
H1929       H  0.74704806  0.71963341  0.81682142     0.38700
H1930       H  0.96775945  0.65349476  0.82877099     0.30600
H1931       H  0.70969844  0.53402122  0.85617873     0.30600
H1932       H  0.84985865  0.61749858  0.74937721     0.30900
C1933       C  0.62513328  0.66624747  0.56490198     0.80100
N1934       N  0.62071197  0.69799267  0.57668654    -0.78200
C1935       C  0.65555910  0.73405216  0.58478526     0.82600
N1936       N  0.69419254  0.73785547  0.58129555    -0.78100
C1937       C  0.69847678  0.70637531  0.56955217     0.82700
N1938       N  0.66405991  0.67060973  0.56138409    -0.79900
C1939       C  0.56407172  0.87976124  0.60477649     0.80100
N1940       N  0.52280706  0.84712075  0.60511229    -0.78200
C1941       C  0.49577982  0.85076310  0.59090996     0.82600
N1942       N  0.50978144  0.88713763  0.57657514    -0.78100
C1943       C  0.55085873  0.92004521  0.57598495     0.82700
N1944       N  0.57861758  0.91629324  0.58987535    -0.79900
C1945       C  0.82377584  0.97020681  0.59249223     0.80100
N1946       N  0.81715895  0.00640613  0.59184063    -0.78200
C1947       C  0.84418498  0.54388155  0.57788648     0.82600
N1948       N  0.87396837  0.54302197  0.56415999    -0.78100
C1949       C  0.87982208  0.00835701  0.56498811     0.82700
N1950       N  0.85587078  0.97114879  0.57920747    -0.79900
C1951       C  0.80935301  0.70690266  0.57324916     0.78300
N1952       N  0.84554147  0.74464619  0.57838132    -0.78200
C1953       C  0.88016424  0.74130458  0.58365256     0.82600
N1954       N  0.87855238  0.70035772  0.58381097    -0.78100
C1955       C  0.84220902  0.66270696  0.57877830     0.82700
N1956       N  0.80762334  0.66597194  0.57352404    -0.79900
Zr1957     Zr  0.69084783  0.83896795  0.71131299     2.17500
O1958       O  0.68909990  0.81760442  0.75144097    -0.51400
O1959       O  0.69605089  0.89925428  0.73609867    -0.74600
O1960       O  0.74786885  0.82290479  0.72147734    -0.81400
O1961       O  0.57131394  0.78899622  0.70865797    -0.83200
O1962       O  0.79593813  0.85243787  0.69183629    -0.78800
O1963       O  0.62219923  0.77795041  0.72485346    -0.90400
O1964       O  0.73452536  0.96582694  0.71662814    -0.76400
O1965       O  0.74651283  0.90320871  0.69095905    -0.85900
O1966       O  0.65854956  0.88205706  0.69804216    -0.85600
O1967       O  0.71333362  0.80877139  0.68026672    -0.72300
O1968       O  0.63483537  0.79149207  0.68723171    -0.84500
Zr1969     Zr  0.68511264  0.87007903  0.62256115     2.26400
Zr1970     Zr  0.76852981  0.87369916  0.65955699     2.06300
Zr1971     Zr  0.60423082  0.83509845  0.67335704     2.10000
Zr1972     Zr  0.71392711  0.94585616  0.67796479     1.78800
O1973       O  0.53316801  0.77353771  0.66727467    -0.93300
O1974       O  0.78323451  0.01356264  0.67474171    -0.41100
O1975       O  0.65980392  0.89904021  0.65279276    -0.77700
O1976       O  0.73951612  0.92028750  0.64712844    -0.96400
O1977       O  0.71316133  0.82401383  0.63586966    -0.89700
O1978       O  0.62745407  0.80700560  0.64241849    -0.92500
C1979       C  0.71415105  0.94274512  0.73444263     1.01200
C1980       C  0.58370242  0.76930902  0.72326590     1.14100
C1981       C  0.78345952  0.83287818  0.71161572     1.04900
O1982       O  0.84085458  0.93147861  0.66630381    -0.94700
O1983       O  0.80604690  0.91745309  0.62427128    -0.90400
O1984       O  0.75416832  0.91858046  0.60376829    -0.83600
C1985       C  0.79324229  0.93100205  0.60702524     1.11600
O1986       O  0.65009028  0.70096719  0.68221907    -0.96700
Zr1987     Zr  0.65616887  0.76187498  0.65673695     1.88900
O1988       O  0.67602612  0.80575329  0.59993460    -0.73300
O1989       O  0.79419003  0.82673417  0.64181751    -0.52600
O1990       O  0.69504651  0.72601744  0.64126176    -0.97300
O1991       O  0.58303425  0.70196660  0.66314660    -0.54500
O1992       O  0.62941884  0.74225704  0.61943403    -0.73800
C1993       C  0.65176150  0.76261531  0.60171043     0.98500
O1994       O  0.67820981  0.89481646  0.58433955    -0.62700
O1995       O  0.57561826  0.88100428  0.68920204    -0.57500
O1996       O  0.63002087  0.88638942  0.61182368    -0.94100
O1997       O  0.57732280  0.85284276  0.63910587    -0.92600
O1998       O  0.66778276  0.97420415  0.69207510    -0.92900
O1999       O  0.71696471  0.00469715  0.65212994    -0.91700
C2000       C  0.59250068  0.87320552  0.61963924     1.17300
H2001       H  0.64521643  0.89066948  0.70986956     0.33300
H2002       H  0.76040872  0.94857503  0.64001184     0.44100
H2003       H  0.60400712  0.79103062  0.63260319     0.37700
H2004       H  0.72317476  0.78839102  0.68540533     0.34100
H2005       H  0.78970713  0.53494001  0.68374303     0.25900
H2006       H  0.78402325  0.82270713  0.62608373     0.31900
H2007       H  0.67390725  0.69968406  0.63303314     0.37800
H2008       H  0.68669892  0.00232333  0.69991183     0.32200
H2009       H  0.58107107  0.90421979  0.67711660     0.31100
H2010       H  0.51423589  0.78602474  0.67111584     0.32800
H2011       H  0.56617394  0.71145305  0.65375241     0.31800
H2012       H  0.69110926  0.98929691  0.64319862     0.35800
H2013       H  0.69772699  0.92796780  0.58320150     0.28500
H2014       H  0.71699625  0.83941649  0.75728848     0.32700
H2015       H  0.63655487  0.67304821  0.67336321     0.35600
H2016       H  0.54456666  0.86103746  0.68961159     0.28200
H2017       H  0.69089876  0.88173347  0.57391091     0.41100
H2018       H  0.83987747  0.96023055  0.66645439     0.31100
H2019       H  0.80284690  0.00392079  0.68100020     0.38700
H2020       H  0.57550494  0.70519450  0.67903602     0.30600
H2021       H  0.82515342  0.84682496  0.63998175     0.30600
H2022       H  0.68854712  0.78802326  0.75174573     0.30900
C2023       C  0.92239115  0.86643936  0.43485446     0.80100
N2024       N  0.88390687  0.85875820  0.44259438    -0.78200
C2025       C  0.84844278  0.82160725  0.43651837     0.82600
N2026       N  0.85124104  0.79228445  0.42233387    -0.78100
C2027       C  0.88948540  0.79978460  0.41429723     0.82700
N2028       N  0.92545139  0.83710868  0.42044544    -0.79900
C2029       C  0.98677788  0.67038934  0.39800345     0.80100
N2030       N  0.02820934  0.70293023  0.39721136    -0.78200
C2031       C  0.05584468  0.69829962  0.41062602     0.82600
N2032       N  0.04239285  0.66117436  0.42433528    -0.78100
C2033       C  0.00130275  0.62864399  0.42531403     0.82700
N2034       N  0.97299589  0.63328981  0.41236863    -0.79900
C2035       C  0.72014205  0.55518966  0.40739218     0.80100
N2036       N  0.73265520  0.52467120  0.41326138    -0.78200
C2037       C  0.70995083  0.49087108  0.42865091     0.82600
N2038       N  0.67457972  0.48717482  0.43851890    -0.78100
C2039       C  0.66105015  0.51689692  0.43309364     0.82700
N2040       N  0.68373999  0.55136551  0.41722276    -0.79900
C2041       C  0.74017572  0.82454189  0.43908239     0.80100
N2042       N  0.74570747  0.86708469  0.44031978    -0.78200
C2043       C  0.71454485  0.87555630  0.43393726     0.82600
N2044       N  0.67824871  0.84191718  0.42601127    -0.78100
C2045       C  0.67284861  0.79957333  0.42456167     0.82700
N2046       N  0.70385106  0.79070446  0.43103901    -0.79900
Zr2047     Zr  0.52976912  0.51420924  0.45178479     2.17500
O2048       O  0.53889919  0.52288296  0.41037048    -0.51400
O2049       O  0.97487950  0.94330983  0.43727452    -0.74600
O2050       O  0.59732547  0.52122078  0.43780533    -0.81400
O2051       O  0.96303098  0.57708021  0.45606482    -0.83200
O2052       O  0.62378932  0.00258489  0.46948766    -0.78800
O2053       O  0.01615647  0.57265833  0.43693559    -0.90400
O2054       O  0.96860866  0.89309834  0.46441995    -0.76400
O2055       O  0.52822082  0.95914417  0.47896195    -0.85900
O2056       O  0.96211530  0.48087496  0.47139972    -0.85600
O2057       O  0.58694844  0.55253745  0.47748059    -0.72300
O2058       O  0.52537017  0.57154409  0.47285785    -0.84500
Zr2059     Zr  0.51467080  0.02323528  0.54373398     2.26400
Zr2060     Zr  0.58452277  0.99852916  0.50458683     2.06300
Zr2061     Zr  0.95675034  0.53762525  0.49270999     2.10000
Zr2062     Zr  0.95886878  0.92540995  0.49849679     1.78800
O2063       O  0.94408067  0.60138197  0.49781181    -0.93300
O2064       O  0.95932496  0.85663258  0.51130286    -0.41100
O2065       O  0.95632398  0.98441152  0.51893336    -0.77700
O2066       O  0.51576470  0.96248205  0.52327903    -0.96400
O2067       O  0.58218080  0.55493125  0.52300539    -0.89700
O2068       O  0.51484987  0.57725002  0.51767236    -0.92500
C2069       C  0.95914307  0.90254910  0.44517914     1.01200
C2070       C  0.99066987  0.58861219  0.43957562     1.14100
C2071       C  0.62480195  0.51279683  0.44691094     1.04900
O2072       O  0.60307301  0.93847685  0.50274554    -0.94700
O2073       O  0.58331350  0.96430875  0.54222741    -0.90400
O2074       O  0.53860949  0.97771618  0.56448628    -0.83600
C2075       C  0.56158656  0.95910587  0.56079434     1.11600
O2076       O  0.62308860  0.65663476  0.46426422    -0.96700
Zr2077     Zr  0.58160239  0.61046788  0.49741706     1.88900
O2078       O  0.57140176  0.59124230  0.55809943    -0.73300
O2079       O  0.65476525  0.54112989  0.51576425    -0.52600
O2080       O  0.65650777  0.64277502  0.50501707    -0.97300
O2081       O  0.57041722  0.67448295  0.48837079    -0.54500
O2082       O  0.58760762  0.64791374  0.53216618    -0.73800
C2083       C  0.59110869  0.63328309  0.55158151     0.98500
O2084       O  0.99549685  0.02266859  0.58413571    -0.62700
O2085       O  0.88576051  0.49128330  0.47886459    -0.57500
O2086       O  0.94480200  0.50614237  0.55751211    -0.94100
O2087       O  0.91360640  0.52159084  0.52800555    -0.92600
O2088       O  0.88590878  0.89230079  0.48689142    -0.92900
O2089       O  0.91031824  0.88010127  0.52978433    -0.91700
C2090       C  0.91440319  0.51008237  0.54897601     1.17300
H2091       H  0.93660586  0.96835427  0.46231421     0.33300
H2092       H  0.50971614  0.93572444  0.53222993     0.44100
H2093       H  0.51056046  0.59902772  0.52608399     0.37700
H2094       H  0.61433041  0.56910677  0.46984006     0.34100
H2095       H  0.93883174  0.83254439  0.50168189     0.25900
H2096       H  0.66835787  0.52205940  0.51397098     0.31900
H2097       H  0.66492219  0.67304229  0.51105364     0.37800
H2098       H  0.87407015  0.85918848  0.48943470     0.32200
H2099       H  0.86866638  0.47283523  0.49231037     0.31100
H2100       H  0.91295321  0.58758102  0.49949181     0.32800
H2101       H  0.55022344  0.67322021  0.50035064     0.31800
H2102       H  0.92637188  0.89247434  0.54372075     0.35800
H2103       H  0.98565912  0.99139572  0.59011833     0.28500
H2104       H  0.54380012  0.49795057  0.40539708     0.32700
H2105       H  0.64365620  0.68637139  0.47017588     0.35600
H2106       H  0.87192669  0.01715453  0.48402131     0.28200
H2107       H  0.02263863  0.04123616  0.59158717     0.41100
H2108       H  0.57609921  0.91089726  0.49974821     0.31100
H2109       H  0.98724012  0.86106083  0.50603629     0.38700
H2110       H  0.55384190  0.66601471  0.47439166     0.30600
H2111       H  0.66857001  0.56530049  0.50374560     0.30600
H2112       H  0.56615994  0.55092851  0.40720114     0.30900
C2113       C  0.78524580  0.97527289  0.23348044     0.80100
N2114       N  0.82381936  0.97920418  0.22904151    -0.78200
C2115       C  0.86056185  0.51772027  0.23406420     0.82600
N2116       N  0.85790412  0.54863983  0.24705565    -0.78100
C2117       C  0.81985819  0.54447619  0.25281021     0.82700
N2118       N  0.78374115  0.50861244  0.24557222    -0.79900
C2119       C  0.72786474  0.68670699  0.26930837     0.80100
N2120       N  0.68684723  0.65335367  0.26986266    -0.78200
C2121       C  0.65899805  0.65625200  0.25599824     0.82600
N2122       N  0.67188439  0.69279696  0.24184968    -0.78100
C2123       C  0.71269128  0.72652226  0.24106995     0.82700
N2124       N  0.74126747  0.72341613  0.25461373    -0.79900
C2125       C  0.48803515  0.78367421  0.25690900     0.80100
N2126       N  0.51971155  0.78326187  0.24387002    -0.78200
C2127       C  0.54307182  0.81890832  0.22873019     0.82600
N2128       N  0.53552246  0.85427239  0.22742351    -0.78100
C2129       C  0.50533833  0.85510769  0.24075394     0.82700
N2130       N  0.48145851  0.81986289  0.25525391    -0.79900
C2131       C  0.47176866  0.51562716  0.23796091     0.80100
N2132       N  0.47227345  0.97927716  0.23301667    -0.78200
C2133       C  0.50570122  0.97474161  0.23927644     0.82600
N2134       N  0.54017386  0.50707347  0.24785409    -0.78100
C2135       C  0.54290194  0.54851911  0.24770585     0.82700
N2136       N  0.50864095  0.55290941  0.24278884    -0.79900
Zr2137     Zr  0.69567166  0.82947775  0.11876223     2.17500
O2138       O  0.70561766  0.83731102  0.07734230    -0.51400
O2139       O  0.64272444  0.76082013  0.10084382    -0.74600
O2140       O  0.76385217  0.83840401  0.10550798    -0.81400
O2141       O  0.63210161  0.89443000  0.12123578    -0.83200
O2142       O  0.78919991  0.81539507  0.13508130    -0.78800
O2143       O  0.68407536  0.88824825  0.10195618    -0.90400
O2144       O  0.63486909  0.70719356  0.12636769    -0.76400
O2145       O  0.69321833  0.77092902  0.14320081    -0.85900
O2146       O  0.62615266  0.79487028  0.13644313    -0.85600
O2147       O  0.75135535  0.86725330  0.14536231    -0.72300
O2148       O  0.69023348  0.88623624  0.13986682    -0.84500
Zr2149     Zr  0.67609505  0.83053146  0.20910974     2.26400
Zr2150     Zr  0.74780917  0.80806113  0.17009101     2.06300
Zr2151     Zr  0.62182737  0.85194616  0.15784618     2.10000
Zr2152     Zr  0.62433387  0.73719330  0.16108598     1.78800
O2153       O  0.60821429  0.91495246  0.16341938    -0.93300
O2154       O  0.62538428  0.66861623  0.17369107    -0.41100
O2155       O  0.62006272  0.79418347  0.18268290    -0.77700
O2156       O  0.67807158  0.77099039  0.18784686    -0.96400
O2157       O  0.74422485  0.86663315  0.19073137    -0.89700
O2158       O  0.67614811  0.88827730  0.18490350    -0.92500
C2159       C  0.62701353  0.71915689  0.10729447     1.01200
C2160       C  0.65923560  0.90496327  0.10447313     1.14100
C2161       C  0.79104674  0.82925566  0.11425922     1.04900
O2162       O  0.76287545  0.74565277  0.16686692    -0.94700
O2163       O  0.74531889  0.77242178  0.20762700    -0.90400
O2164       O  0.69865033  0.78328166  0.22957699    -0.83600
C2165       C  0.72247331  0.76561803  0.22595230     1.11600
O2166       O  0.79340333  0.97271493  0.13575440    -0.96700
Zr2167     Zr  0.74421974  0.92362560  0.16602338     1.88900
O2168       O  0.73192463  0.90002254  0.22591816    -0.73300
O2169       O  0.81917017  0.85825866  0.18223244    -0.52600
O2170       O  0.81747836  0.95858441  0.17734430    -0.97300
O2171       O  0.73023818  0.98488003  0.15500520    -0.54500
O2172       O  0.74501830  0.95768724  0.20145398    -0.73800
C2173       C  0.75019435  0.94253928  0.22034140     0.98500
O2174       O  0.65595044  0.82448828  0.24948989    -0.62700
O2175       O  0.55110964  0.80697368  0.14343820    -0.57500
O2176       O  0.60588399  0.81490100  0.22234252    -0.94100
O2177       O  0.57878315  0.83648583  0.19302397    -0.92600
O2178       O  0.55353473  0.70540843  0.14632504    -0.92900
O2179       O  0.56986994  0.68709730  0.18892366    -0.91700
C2180       C  0.57750635  0.82223238  0.21370406     1.17300
H2181       H  0.60384231  0.78325123  0.12563213     0.33300
H2182       H  0.67167671  0.74390184  0.19658135     0.44100
H2183       H  0.67059231  0.90894714  0.19354079     0.37700
H2184       H  0.77899054  0.88434071  0.13805431     0.34100
H2185       H  0.60945367  0.64597959  0.16220638     0.25900
H2186       H  0.83469325  0.84150201  0.17919464     0.31900
H2187       H  0.82524038  0.99025882  0.18067584     0.37800
H2188       H  0.54551319  0.67364462  0.14303393     0.32200
H2189       H  0.53596952  0.78234760  0.15511005     0.31100
H2190       H  0.58628491  0.91057409  0.15245139     0.32800
H2191       H  0.70402523  0.97813863  0.16370736     0.31800
H2192       H  0.57502593  0.70551156  0.20259211     0.35800
H2193       H  0.64233022  0.79178126  0.25380165     0.28500
H2194       H  0.71100061  0.81253020  0.07268051     0.32700
H2195       H  0.80688940  0.00380585  0.14157635     0.35600
H2196       H  0.53787717  0.82645938  0.14488027     0.28200
H2197       H  0.68289255  0.83823050  0.25756640     0.41100
H2198       H  0.73595392  0.71984815  0.16216570     0.31100
H2199       H  0.65507992  0.67567530  0.17108573     0.38700
H2200       H  0.72152698  0.97930204  0.13900773     0.30600
H2201       H  0.83102125  0.88358221  0.17072779     0.30600
H2202       H  0.73269518  0.86553881  0.07411511     0.30900
Zr2203     Zr  0.85209979  0.68285168  0.28891710     2.17500
O2204       O  0.84756631  0.70849385  0.25046012    -0.51400
O2205       O  0.83935374  0.61622299  0.26733061    -0.74600
O2206       O  0.92138273  0.73075985  0.26983329    -0.81400
O2207       O  0.74209280  0.66311102  0.30424038    -0.83200
O2208       O  0.97474000  0.73628455  0.29150262    -0.78800
O2209       O  0.79443021  0.69425270  0.27666377    -0.90400
O2210       O  0.80444148  0.55304042  0.29006065    -0.76400
O2211       O  0.88543597  0.64359714  0.30477832    -0.85900
O2212       O  0.79692465  0.61971709  0.31006004    -0.85600
O2213       O  0.90501776  0.73809375  0.31248981    -0.72300
O2214       O  0.82316956  0.71198259  0.31712903    -0.84500
Zr2215     Zr  0.85752816  0.66350626  0.37816233     2.26400
Zr2216     Zr  0.93879939  0.69837028  0.32808408     2.06300
Zr2217     Zr  0.76953502  0.64841504  0.33898141     2.10000
Zr2218     Zr  0.83055057  0.58134511  0.32668945     1.78800
O2219       O  0.73775465  0.69224994  0.35355094    -0.93300
O2220       O  0.87037279  0.54446553  0.31398603    -0.41100
O2221       O  0.80343945  0.60974158  0.35522450    -0.77700
O2222       O  0.88563330  0.63357368  0.34985138    -0.96400
O2223       O  0.91134708  0.72723595  0.35692530    -0.89700
O2224       O  0.82213557  0.70148973  0.36294858    -0.92500
C2225       C  0.81929883  0.57297361  0.27078266     1.01200
C2226       C  0.75687661  0.68154322  0.28440628     1.14100
C2227       C  0.96085760  0.74593221  0.27341396     1.04900
O2228       O  0.97197402  0.65439290  0.31576727    -0.94700
O2229       O  0.97108844  0.69112702  0.36263683    -0.90400
O2230       O  0.91982123  0.66113125  0.39077226    -0.83600
C2231       C  0.95746172  0.67477172  0.38289223     1.11600
O2232       O  0.87420913  0.81798509  0.31367656    -0.96700
Zr2233     Zr  0.87589989  0.76432186  0.34129056     1.88900
O2234       O  0.86727751  0.72778629  0.40010806    -0.73300
O2235       O  0.00574985  0.76566761  0.33537600    -0.52600
O2236       O  0.93901358  0.83737992  0.33390790    -0.97300
O2237       O  0.82886464  0.78944548  0.35773908    -0.54500
O2238       O  0.90775856  0.78927532  0.37752217    -0.73800
C2239       C  0.88983733  0.77065744  0.39662530     0.98500
O2240       O  0.85306753  0.63746556  0.41774143    -0.62700
O2241       O  0.69965822  0.58440135  0.33270144    -0.57500
O2242       O  0.78860568  0.60704718  0.39424567    -0.94100
O2243       O  0.73438730  0.60464849  0.37445845    -0.92600
O2244       O  0.75977391  0.51862760  0.33531406    -0.92900
O2245       O  0.83133491  0.52757580  0.35459278    -0.91700
C2246       C  0.74896244  0.59237448  0.39136436     1.17300
H2247       H  0.77418822  0.60081516  0.30034896     0.33300
H2248       H  0.89786040  0.61659847  0.35663288     0.44100
H2249       H  0.80889623  0.71038366  0.37470268     0.37700
H2250       H  0.92483020  0.76586964  0.30449661     0.34100
H2251       H  0.84861166  0.51356438  0.31001948     0.25900
H2252       H  0.02755226  0.76105758  0.32731559     0.31900
H2253       H  0.96280885  0.83171716  0.33696863     0.37800
H2254       H  0.74141470  0.53271717  0.33587727     0.32200
H2255       H  0.68071331  0.59767655  0.33139669     0.31100
H2256       H  0.70718963  0.67341664  0.35090292     0.32800
H2257       H  0.81014100  0.78757186  0.34530223     0.31800
H2258       H  0.82684069  0.53814693  0.36946087     0.35800
H2259       H  0.85903663  0.61184901  0.41751202     0.28500
H2260       H  0.86224211  0.69717699  0.24029856     0.32700
H2261       H  0.87422173  0.80505500  0.29870388     0.35600
H2262       H  0.70143509  0.57439239  0.31719594     0.28200
H2263       H  0.87731978  0.66206625  0.42535225     0.41100
H2264       H  0.95638133  0.62517787  0.32448515     0.31100
H2265       H  0.88386971  0.55970050  0.29918152     0.38700
H2266       H  0.84719364  0.82233732  0.35981115     0.30600
H2267       H  0.00513498  0.79071728  0.32668821     0.30600
H2268       H  0.86571123  0.74191571  0.24990882     0.30900
C2269       C  0.50234747  0.93095874  0.24010682    -0.13400
C2270       C  0.50132716  0.89495901  0.24058279    -0.14900
C2271       C  0.58231890  0.58756966  0.25225948    -0.13400
C2272       C  0.61679240  0.61936550  0.25494414    -0.14900
C2273       C  0.90076565  0.52080534  0.23007426    -0.13400
C2274       C  0.93442205  0.52213126  0.23004422    -0.14900
C2275       C  0.71841651  0.95467034  0.43306273    -0.13400
C2276       C  0.72005593  0.92016627  0.43449273    -0.14900
C2277       C  0.59917621  0.73569876  0.41177064    -0.13400
C2278       C  0.63391969  0.76445005  0.41657224    -0.14900
C2279       C  0.77523071  0.81746645  0.44289506    -0.13400
C2280       C  0.80807467  0.81695650  0.44215979    -0.14900
C2281       C  0.84047079  0.58402809  0.57841706    -0.13400
C2282       C  0.84046023  0.61955901  0.57872682    -0.14900
C2283       C  0.45354966  0.81440419  0.58929938    -0.13400
C2284       C  0.91898620  0.78114883  0.58813427    -0.14900
C2285       C  0.73877777  0.70883223  0.56777727    -0.13400
C2286       C  0.77202371  0.70945981  0.56902431    -0.14900
C2287       C  0.52862913  0.58142927  0.75783802    -0.13400
C2288       C  0.52820780  0.61708070  0.75679265    -0.14900
C2289       C  0.58418189  0.47855627  0.77480317    -0.13400
C2290       C  0.61271464  0.47061472  0.77723871    -0.14900
C2291       C  0.92705962  0.88524914  0.72474157    -0.13400
C2292       C  0.95667757  0.92135914  0.72844054    -0.14900
C2293       C  0.58971672  0.87198590  0.90763329    -0.13400
C2294       C  0.61729175  0.86326476  0.91180455    -0.14900
C2295       C  0.69007795  0.77501069  0.92180321    -0.13400
C2296       C  0.69156348  0.73999339  0.92077413    -0.14900
C2297       C  0.75490235  0.93428660  0.94014829    -0.13400
C2298       C  0.78462367  0.97144065  0.94184468    -0.14900
C2299       C  0.79620885  0.56790915  0.07096567    -0.13400
C2300       C  0.76083245  0.53758830  0.06878050    -0.14900
C2301       C  0.87344851  0.72607866  0.08656228    -0.13400
C2302       C  0.87195086  0.76059771  0.08771163    -0.14900
C2303       C  0.97865195  0.64018957  0.08877657    -0.13400
C2304       C  0.94497550  0.63856783  0.08739739    -0.14900
loop_ 
_geom_bond_atom_site_label_1 
_geom_bond_atom_site_label_2 
_geom_bond_distance 
_geom_bond_site_symmetry_2 
_ccdc_geom_bond_type 
C1            N2   1.357       .  A
C1            N6   1.362       .  A
C1          C431   1.455       .  S
N2         C1155   1.351       .  A
C3            N4   1.348       .  A
C3         N1154   1.353       .  A
C3          C575   1.426       .  S
N4         C1157   1.353       .  A
C5            N6   1.361       .  A
C5         N1156   1.352       .  A
C5           C71   1.450       .  S
C7            N8   1.371       .  A
C7           N12   1.356       .  A
C7           C72   1.479       .  S
N8            C9   1.375       .  A
C9           N10   1.353       .  A
C9          C433   1.471       .  S
N10          C11   1.347       .  A
C11          N12   1.348       .  A
C11         C574   1.423       .  S
C13          N18   1.367       .  A
C13         N590   1.359       .  A
C13          C73   1.462       .  S
N14          C15   1.351       .  A
N14         C589   1.359   1_545  A
C15         N592   1.346   1_545  A
C15         C572   1.428       .  S
N16          C17   1.354       .  A
N16         C591   1.345       .  A
C17          N18   1.360       .  A
C17         C432   1.458       .  S
C19          N20   1.359       .  A
C19          N24   1.354       .  A
C19         C576   1.426       .  S
N20          C21   1.357       .  A
C21          N22   1.353       .  A
C21         C571   1.428       .  S
N22          C23   1.352       .  A
C23          N24   1.352       .  A
C23         C573   1.423       .  S
C25          N26   1.359       .  A
C25          N30   1.376       .  A
C25         C175   1.478       .  S
N26         C603   1.352       .  A
C27          N28   1.339       .  A
C27         N602   1.352       .  A
C27         C570   1.420       .  S
N28         C605   1.348       .  A
C29          N30   1.374       .  A
C29         N604   1.348       .  A
C29         C668   1.472       .  S
C31          N32   1.360       .  A
C31          N36   1.360       .  A
C31          C77   1.463       .  S
N32          C33   1.354       .  A
C33          N34   1.357       .  A
C33         C568   1.447       .  S
N34          C35   1.363       .  A
C35          N36   1.361       .  A
C35         C167   1.465       .  S
C37          N38   1.361       .  A
C37          N42   1.364       .  A
C37         C567   1.447       .  S
N38          C39   1.360       .  A
C39          N40   1.344       .  A
C39         C569   1.421       .  S
N40          C41   1.344       .  A
C41          N42   1.362       .  A
C41         C566   1.424       .  S
C43          N48   1.363       .  A
C43        N1196   1.346       .  A
C43         C182   1.450       .  S
N44          C45   1.340       .  A
N44        C1195   1.347   1_455  A
C45          N46   1.356       .  A
C45         C565   1.423       .  S
N46          C47   1.363       .  A
C47        N1200   1.363   1_455  A
C47          C85   1.461   1_455  S
N48        C1199   1.366       .  A
Zr49         O52   2.418       .  S
Zr49        O627   2.424       .  S
Zr49       O1207   2.425   1_455  S
Zr49         O59   2.418       .  S
Zr49        O633   2.398       .  S
Zr49       O1786   2.401   1_455  S
Zr49       O1212   2.391   1_455  S
Zr49       O1202   2.444       .  S
O50       Zr1201   2.444       .  S
O50         H106   0.991       .  S
O50         H114   0.991       .  S
O51        Zr625   2.426   1_545  S
O51          C71   1.273       .  A
O52          C73   1.278       .  A
O53         Zr63   2.480       .  S
O53          C72   1.291       .  A
O54         Zr62   2.428   1_554  S
O54         C649   1.284   1_545  A
O55       Zr1201   2.425       .  S
O55          C72   1.284       .  A
O56         Zr64   2.411       .  S
O56          C71   1.267       .  A
O57         Zr62   2.389   1_554  S
O57         Zr64   2.380       .  S
O57        Zr625   2.397   1_545  S
O58       Zr1777   2.406   1_545  S
O58        Zr639   2.389   1_545  S
O58       Zr1216   2.380       .  S
O58          H93   0.966       .  S
O59         Zr79   2.406   1_454  S
O59        Zr638   2.410   1_554  S
O59          H96   0.966       .  S
O60         Zr63   2.385       .  S
O60       Zr1201   2.392       .  S
O60       Zr1231   2.372   1_554  S
Zr61         O76   2.432       .  S
Zr61        O656   2.464   1_545  S
Zr61       O1240   2.450   1_455  S
Zr61         O68   2.422       .  S
Zr61       O1219   2.417   1_455  S
Zr61        O645   2.378   1_545  S
Zr61       O1798   2.397   1_445  S
Zr61         O86   2.443       .  S
Zr62         O75   2.458       .  S
Zr62         O68   2.398       .  S
Zr62        O635   2.410   1_546  S
Zr62        O645   2.385   1_545  S
Zr62         O74   2.433       .  S
Zr62        O657   2.436   1_545  S
Zr63         O89   2.433   1_554  S
Zr63         O70   2.405   1_554  S
Zr63        O634   2.393       .  S
Zr63        O643   2.401   1_554  S
Zr63         O65   2.436   1_554  S
Zr63        O663   2.439       .  S
Zr64         O68   2.378   1_554  S
Zr64       O1210   2.388   1_455  S
Zr64       O1219   2.391   1_454  S
Zr64         O91   2.439   1_554  S
Zr64         O66   2.442       .  S
Zr64       O1242   2.435   1_455  S
O65         H102   0.990   1_556  S
O66          H97   0.990       .  S
O66         H111   0.990       .  S
O67       Zr1213   2.422       .  S
O67        Zr639   2.400   1_546  S
O67       Zr1216   2.388   1_556  S
O68          H94   0.961       .  S
O69         Zr79   2.388   1_455  S
O69        Zr637   2.379       .  S
O69        Zr638   2.384       .  S
O70       Zr1789   2.400       .  S
O70       Zr1231   2.386       .  S
O70          H95   0.967       .  S
C73         O630   1.285       .  A
O74         H110   0.990   1_556  S
O75          C77   1.288       .  A
O76          C77   1.285       .  A
O78       Zr1231   2.439   1_554  S
O78         H107   0.990       .  S
Zr79         O84   2.398       .  S
Zr79       O1212   2.373   1_556  S
Zr79       O1222   2.387       .  S
Zr79         O82   2.436   1_655  S
Zr79       O1230   2.439   1_556  S
Zr79       O1235   2.441       .  S
O80        Zr637   2.465       .  S
O80          C85   1.285   1_455  A
O81        Zr638   2.435       .  S
O81          H98   0.990       .  S
O81         H113   0.990       .  S
O82          H99   0.989       .  S
O83       Zr1231   2.440       .  S
O83         H103   0.990       .  S
O83         H112   0.990   1_556  S
O84          C85   1.270       .  A
O86         H105   0.991       .  S
O86         H109   0.990       .  S
O87        Zr639   2.439   1_545  S
O87         H108   0.990       .  S
O87         H677   0.990       .  S
O88       Zr1213   2.446       .  S
O88         C668   1.283       .  A
O89          C92   1.288       .  A
O90       Zr1216   2.435       .  S
O90        H1252   0.990       .  S
O91         H104   0.990       .  S
C92         C605   1.471       .  S
C92         O664   1.284       .  A
H100       O1242   0.990       .  S
H101        O663   0.990       .  S
C115        N116   1.357       .  A
C115        N120   1.373       .  A
C115        C161   1.473       .  S
N116        C117   1.351       .  A
C117        N118   1.339       .  A
C117        C563   1.415       .  S
N118        C119   1.348       .  A
C119        N120   1.372       .  A
C119        C253   1.464       .  S
C121        N122   1.346       .  A
C121        N126   1.363       .  A
C121        C163   1.451       .  S
N122        C123   1.338   1_545  A
C123        N700   1.355       .  A
C123        C562   1.419       .  S
N124        C125   1.362       .  A
N124        C699   1.355       .  A
C125        N702   1.366       .  A
C125        C251   1.467       .  S
N126        C701   1.366   1_545  A
C127        N128   1.361       .  A
C127        N132   1.364       .  A
C127        C252   1.474       .  S
N128        C129   1.357       .  A
C129       N1282   1.355   1_455  A
C129        C560   1.444       .  S
N130        C131   1.360       .  A
N130       C1281   1.356       .  A
C131       N1284   1.362       .  A
C131        C162   1.467       .  S
N132       C1283   1.364   1_455  A
C133        N138   1.362       .  A
C133       N1286   1.361   1_455  A
C133        C559   1.444       .  S
N134       C1285   1.361       .  A
N134        C711   1.359   1_545  A
C135        N710   1.357       .  A
C135       N1288   1.343       .  A
C135        C564   1.416       .  S
N136       C1287   1.343   1_455  A
N136        C713   1.343       .  A
C137        N138   1.361   1_565  A
C137        N712   1.343       .  A
C137        C561   1.420       .  S
Zr139       O141   2.478       .  S
Zr139       O142   2.449       .  S
Zr139       O145   2.446       .  S
Zr139       O147   2.388       .  S
Zr139       O148   2.389       .  S
Zr139       O149   2.426       .  S
Zr139       O150   2.401       .  S
Zr139       O140   2.443       .  S
O140        H196   0.991       .  S
O140        H204   0.990       .  S
O141        C161   1.290       .  A
O142        C163   1.284       .  A
O143       Zr153   2.450       .  S
O143        C162   1.286       .  A
O144       Zr152   2.401       .  S
O144        C163   1.281       .  A
O145        C162   1.286       .  A
O146       Zr154   2.412       .  S
O146        C161   1.275       .  A
O147       Zr152   2.405       .  S
O147       Zr154   2.382       .  S
O148       Zr153   2.386       .  S
O148       Zr154   2.382       .  S
O148        H183   0.966       .  S
O149       Zr152   2.402       .  S
O149       Zr169   2.385       .  S
O149        H186   0.964       .  S
O150       Zr153   2.373       .  S
O150       Zr169   2.381       .  S
Zr151       O170   2.485       .  S
Zr151       O178   2.436       .  S
Zr151       O166   2.450       .  S
Zr151       O157   2.415       .  S
Zr151       O158   2.418       .  S
Zr151       O159   2.373       .  S
Zr151       O160   2.394       .  S
Zr151       O176   2.442       .  S
Zr152       O165   2.446       .  S
Zr152       O158   2.388       .  S
Zr152       O159   2.390       .  S
Zr152       O171   2.437       .  S
Zr152       O164   2.435       .  S
Zr153       O179   2.404       .  S
Zr153       O157   2.388       .  S
Zr153       O160   2.401       .  S
Zr153       O155   2.438       .  S
Zr153       O177   2.436       .  S
Zr154       O157   2.393       .  S
Zr154       O158   2.376       .  S
Zr154       O180   2.437       .  S
Zr154       O181   2.436       .  S
Zr154       O156   2.437       .  S
O155       H1344   0.990       .  S
O156        H187   0.990       .  S
O156        H201   0.990       .  S
O158        H184   0.963       .  S
O159       Zr169   2.392       .  S
O160       Zr169   2.378       .  S
O160        H185   0.966       .  S
O164        H200   0.990       .  S
O165        C167   1.285       .  A
O166        C167   1.285       .  A
O168       Zr169   2.440       .  S
O168        H197   0.990       .  S
Zr169       O174   2.409       .  S
Zr169       O172   2.438       .  S
Zr169       O173   2.439       .  S
O170        C175   1.292       .  A
O171        H188   0.990       .  S
O171        H203   0.990       .  S
O172        H189   0.990       .  S
O173        H193   0.990       .  S
O173        H202   0.990       .  S
O174        C175   1.277       .  A
O176        H195   0.991       .  S
O176        H199   0.990       .  S
O177        H191   0.990       .  S
O177        H198   0.990       .  S
O178        C182   1.282       .  A
O179        C182   1.281       .  A
O180        H190   0.991       .  S
O181        H194   0.990       .  S
H192       O1307   0.990       .  S
C205        N206   1.360       .  A
C205        N210   1.356       .  A
C205        C355   1.452       .  S
N206        C207   1.361       .  A
C207        N208   1.352       .  A
C207        C265   1.449       .  S
N208        C209   1.348       .  A
C209        N210   1.352       .  A
C209        C557   1.424       .  S
C211        N212   1.358       .  A
C211        N216   1.366       .  A
C211        C272   1.458       .  S
N212        C213   1.350   1_455  A
C213        N214   1.349   1_655  A
C213        C555   1.433       .  S
N214        C215   1.358       .  A
C215        N216   1.359       .  A
C215        C347   1.462       .  S
C217        N218   1.359       .  A
C217        N222   1.374       .  A
C217        C257   1.485       .  S
N218        C795   1.350       .  A
C219        N220   1.345       .  A
C219        N794   1.348       .  A
C219        C553   1.426       .  S
N220        C797   1.353       .  A
C221        N222   1.376       .  A
C221        N796   1.353       .  A
C221        C938   1.474       .  S
C223        N224   1.357       .  A
C223        N228   1.354       .  A
C223        C558   1.425       .  S
N224        C225   1.356       .  A
C225        N226   1.355       .  A
C225        C556   1.429       .  S
N226        C227   1.354       .  A
C227        N228   1.352       .  A
C227        C554   1.426       .  S
Zr229       O231   2.462       .  S
Zr229       O232   2.447       .  S
Zr229       O235   2.445       .  S
Zr229       O237   2.401       .  S
Zr229       O238   2.394       .  S
Zr229       O239   2.421       .  S
Zr229       O240   2.391       .  S
Zr229       O230   2.443       .  S
O230        H286   0.991       .  S
O230        H294   0.990       .  S
O231        C251   1.285       .  A
O232        C253   1.282       .  A
O233       Zr243   2.463       .  S
O233        C252   1.288       .  A
O234       Zr242   2.429       .  S
O234        C253   1.287       .  A
O235        C252   1.286       .  A
O236       Zr244   2.414       .  S
O236        C251   1.274       .  A
O237       Zr242   2.416       .  S
O237       Zr244   2.385       .  S
O238       Zr243   2.375       .  S
O238       Zr244   2.379       .  S
O238        H273   0.965       .  S
O239       Zr242   2.414       .  S
O239       Zr259   2.387       .  S
O239        H276   0.964       .  S
O240       Zr243   2.386       .  S
O240       Zr259   2.375       .  S
Zr241       O260   2.458       .  S
Zr241       O268   2.411       .  S
Zr241       O256   2.450       .  S
Zr241       O247   2.419       .  S
Zr241       O248   2.413       .  S
Zr241       O249   2.370       .  S
Zr241       O250   2.392       .  S
Zr241       O266   2.443       .  S
Zr242       O255   2.487       .  S
Zr242       O248   2.396       .  S
Zr242       O249   2.390       .  S
Zr242       O261   2.434       .  S
Zr242       O254   2.435       .  S
Zr243       O269   2.435       .  S
Zr243       O247   2.397       .  S
Zr243       O250   2.391       .  S
Zr243       O245   2.434       .  S
Zr243       O267   2.437       .  S
Zr244       O247   2.403       .  S
Zr244       O248   2.375       .  S
Zr244       O270   2.437       .  S
Zr244       O271   2.436       .  S
Zr244       O246   2.438       .  S
O245        H282   0.990       .  S
O246        H291   0.990       .  S
O246        H853   0.990       .  S
O248        H274   0.962       .  S
O249       Zr259   2.391       .  S
O250       Zr259   2.381       .  S
O250        H275   0.965       .  S
O254        H290   0.990       .  S
O255        C257   1.292       .  A
O256        C257   1.287       .  A
O258       Zr259   2.441       .  S
O258        H287   0.991       .  S
Zr259       O264   2.390       .  S
Zr259       O262   2.438       .  S
Zr259       O263   2.438       .  S
O260        C265   1.284       .  A
O261        H278   0.990       .  S
O261        H293   0.990       .  S
O262        H279   0.990       .  S
O263        H283   0.990       .  S
O263        H292   0.990       .  S
O264        C265   1.268       .  A
O266        H285   0.991       .  S
O266        H289   0.990       .  S
O267        H281   0.990       .  S
O267        H288   0.990       .  S
O268        C272   1.278       .  A
O269        C272   1.286       .  A
O270        H280   0.991       .  S
O271        H284   0.990       .  S
H277        O822   0.990       .  S
C295        N296   1.355       .  A
C295        N300   1.360       .  A
C295        C341   1.451       .  S
N296        C297   1.349       .  A
C297        N298   1.346       .  A
C297        C552   1.422       .  S
N298        C299   1.352       .  A
C299        N300   1.362       .  A
C299        C511   1.447       .  S
C301        N302   1.360       .  A
C301        N306   1.364       .  A
C301        C503   1.458       .  S
N302        C303   1.354       .  A
C303        N304   1.347       .  A
C303       C1701   1.428       .  S
N304        C305   1.353       .  A
C305        N306   1.356       .  A
C305        C342   1.453       .  S
C307        N308   1.356       .  A
C307        N312   1.377       .  A
C307        C518   1.485       .  S
N308        C309   1.347   1_545  A
C309        N310   1.345       .  A
C309       C1123   1.419       .  S
N310        C311   1.352   1_565  A
C311        N312   1.379       .  A
C311        C343   1.481       .  S
C313        N314   1.354       .  A
C313        N318   1.358       .  A
C313        C551   1.423       .  S
N314        C315   1.351       .  A
C315        N316   1.353       .  A
C315        C548   1.421       .  S
N316        C317   1.352       .  A
C317        N318   1.357       .  A
C317        C550   1.429       .  S
Zr319       O322   2.462       .  S
Zr319      O2049   2.448   1_445  S
Zr319      O1477   2.430       .  S
Zr319       O329   2.418       .  S
Zr319       O330   2.385       .  S
Zr319       O903   2.389   1_545  S
Zr319      O1480   2.413   1_445  S
Zr319       O320   2.443       .  S
O320        H376   0.991   1_545  S
O320        H384   0.990       .  S
O321      Zr2047   2.444       .  S
O321        C341   1.277       .  A
O322        C343   1.285       .  A
O323       Zr333   2.457       .  S
O323        C342   1.288       .  A
O324       Zr332   2.449       .  S
O324        C919   1.290       .  A
O325      Zr1471   2.429       .  S
O325        C342   1.285       .  A
O326       Zr334   2.400       .  S
O326        C341   1.266       .  A
O327       Zr332   2.404       .  S
O327       Zr895   2.389       .  S
O327      Zr1486   2.390   1_455  S
O328       Zr333   2.395   1_565  S
O328      Zr1471   2.411   1_565  S
O328       Zr910   2.380       .  S
O328        H939   0.967       .  S
O329       Zr349   2.392       .  S
O329       Zr908   2.401   1_545  S
O329        H366   0.964       .  S
O330       Zr349   2.355       .  S
O330      Zr1485   2.378   1_455  S
Zr331       O346   2.427       .  S
Zr331       O926   2.476       .  S
Zr331      O2086   2.448   1_455  S
Zr331       O338   2.420       .  S
Zr331      O1489   2.408   1_455  S
Zr331       O915   2.378       .  S
Zr331       O916   2.389       .  S
Zr331      O1508   2.442   1_455  S
Zr332       O345   2.473       .  S
Zr332       O338   2.404       .  S
Zr332       O905   2.404       .  S
Zr332       O915   2.395       .  S
Zr332       O344   2.434       .  S
Zr332       O927   2.437       .  S
Zr333       O359   2.454       .  S
Zr333      O1482   2.379       .  S
Zr333       O913   2.381   1_545  S
Zr333      O1492   2.398       .  S
Zr333       O335   2.437       .  S
Zr333       O357   2.436   1_545  S
Zr334       O337   2.391       .  S
Zr334      O1479   2.386       .  S
Zr334       O904   2.381       .  S
Zr334      O1490   2.361       .  S
Zr334       O360   2.436       .  S
Zr334       O361   2.437       .  S
Zr334       O336   2.438       .  S
O335        H372   0.990       .  S
O336        H367   0.991       .  S
O336        H381   0.990       .  S
O337      Zr1483   2.405       .  S
O337       Zr909   2.383       .  S
O338      Zr1486   2.361   1_455  S
O338        H364   0.962       .  S
O339       Zr349   2.388       .  S
O339       Zr907   2.379       .  S
O339       Zr908   2.397   1_545  S
O340       Zr349   2.393       .  S
O340       Zr907   2.385       .  S
O340      Zr1485   2.394   1_455  S
O340        H365   0.966       .  S
C343        O900   1.292       .  A
O344        H380   0.990       .  S
O345        C347   1.291       .  A
O346        C347   1.283       .  A
O348       Zr349   2.442       .  S
O348        H377   0.990       .  S
Zr349       O354   2.381       .  S
Zr349       O352   2.438       .  S
Zr349       O353   2.440       .  S
O350       Zr907   2.467       .  S
O350        C355   1.284       .  A
O351       Zr908   2.434   1_545  S
O351        H368   0.990       .  S
O351        H383   0.990       .  S
O352        H369   0.990       .  S
O353        H373   0.990       .  S
O353        H382   0.990       .  S
O354        C355   1.266       .  A
O356      Zr1483   2.442       .  S
O356        H375   0.991       .  S
O356        H379   0.990       .  S
O357        H371   0.990       .  S
O357        H954   0.990   1_565  S
O358      Zr2059   2.442       .  S
O358        C362   1.283       .  A
O359        C362   1.290       .  A
O360        H370   0.990       .  S
O361        H374   0.990       .  S
C362        C797   1.472       .  S
H363        O904   0.966       .  S
H378        O933   0.990       .  S
C385        N386   1.357       .  A
C385        N966   1.362       .  A
C385        C445   1.457       .  S
N386        C963   1.352       .  A
C387        N388   1.348       .  A
C387        N962   1.352   1_545  A
C387        C545   1.427       .  S
N388        C389   1.353       .  A
C389        N390   1.363       .  A
C389        C497   1.454       .  S
N390        C961   1.362   1_545  A
C391        N392   1.359       .  A
C391        N396   1.370       .  A
C391        C498   1.465       .  S
N392        C393   1.351       .  A
C393        N394   1.347       .  A
C393        C544   1.432       .  S
N394        C395   1.356       .  A
C395        N396   1.363       .  A
C395        C437   1.465       .  S
C397        N398   1.373   1_655  A
C397        N402   1.358       .  A
C397       C1651   1.479       .  S
N398        C399   1.375       .  A
C399        N400   1.351       .  A
C399        C452   1.469       .  S
N400        C401   1.343       .  A
C401        N402   1.348   1_455  A
C401        C542   1.422   1_455  S
C403        N408   1.358   1_655  A
C403        N980   1.352   1_545  A
C403       C1698   1.425       .  S
N404        C405   1.350   1_655  A
N404        C979   1.352       .  A
C405        N982   1.354       .  A
C405        C541   1.422   1_455  S
N406        C407   1.356       .  A
N406        C981   1.355   1_545  A
C407        N408   1.358       .  A
C407        C543   1.433       .  S
Zr409       O411   2.449       .  S
Zr409       O412   2.443       .  S
Zr409       O415   2.413       .  S
Zr409       O417   2.384       .  S
Zr409       O418   2.397       .  S
Zr409       O419   2.419       .  S
Zr409       O420   2.392       .  S
Zr409       O410   2.444       .  S
O410        H466   0.990       .  S
O410        H474   0.990       .  S
O411        C431   1.280       .  A
O412        C433   1.282       .  A
O413       Zr423   2.468       .  S
O413        C432   1.289       .  A
O414       Zr422   2.456       .  S
O414        C433   1.290       .  A
O415        C432   1.282       .  A
O416       Zr424   2.401       .  S
O416        C431   1.269       .  A
O417       Zr422   2.404       .  S
O417       Zr424   2.388       .  S
O418       Zr423   2.394       .  S
O418       Zr424   2.379       .  S
O418        H453   0.967       .  S
O419       Zr422   2.403       .  S
O419       Zr439   2.395       .  S
O419        H456   0.964       .  S
O420       Zr423   2.377       .  S
O420       Zr439   2.362       .  S
Zr421       O440   2.468       .  S
Zr421       O448   2.443       .  S
Zr421       O436   2.432       .  S
Zr421       O427   2.410       .  S
Zr421       O428   2.417       .  S
Zr421       O429   2.377       .  S
Zr421       O430   2.390       .  S
Zr421       O446   2.442       .  S
Zr422       O435   2.473       .  S
Zr422       O428   2.406       .  S
Zr422       O429   2.395       .  S
Zr422       O441   2.434       .  S
Zr422       O434   2.434       .  S
Zr423       O449   2.442       .  S
Zr423       O427   2.388       .  S
Zr423       O430   2.399       .  S
Zr423       O425   2.436       .  S
Zr423       O447   2.436       .  S
Zr424       O427   2.388       .  S
Zr424       O428   2.362       .  S
Zr424       O450   2.436       .  S
Zr424       O451   2.435       .  S
Zr424       O426   2.437       .  S
O425        H462   0.990       .  S
O426        H457   0.990       .  S
O426        H471   0.990       .  S
O428        H454   0.961       .  S
O429       Zr439   2.390       .  S
O430       Zr439   2.384       .  S
O430        H455   0.966       .  S
O434        H470   0.990       .  S
O435        C437   1.291       .  A
O436        C437   1.284       .  A
O438       Zr439   2.440       .  S
O438        H467   0.990       .  S
Zr439       O444   2.391       .  S
Zr439       O442   2.437       .  S
Zr439       O443   2.438       .  S
O440        C445   1.285       .  A
O441        H458   0.990       .  S
O441        H473   0.990       .  S
O442        H459   0.990       .  S
O443        H463   0.990       .  S
O443        H472   0.990       .  S
O444        C445   1.268       .  A
O446        H465   0.990       .  S
O446        H469   0.990       .  S
O447        H461   0.990       .  S
O447        H468   0.990       .  S
O448        C452   1.283       .  A
O449        C452   1.289       .  A
O450        H460   0.990       .  S
O451        H464   0.990       .  S
Zr475       O477   2.453       .  S
Zr475       O478   2.444       .  S
Zr475       O481   2.426       .  S
Zr475       O483   2.375       .  S
Zr475       O484   2.391       .  S
Zr475       O485   2.411       .  S
Zr475       O486   2.410       .  S
Zr475       O476   2.442       .  S
O476        H532   0.990       .  S
O476        H540   0.991       .  S
O477        C497   1.285       .  A
O478        C499   1.285       .  A
O479       Zr489   2.443       .  S
O479        C498   1.287       .  A
O480       Zr488   2.463       .  S
O480        C499   1.286       .  A
O481        C498   1.281       .  A
O482       Zr490   2.397       .  S
O482        C497   1.273       .  A
O483       Zr488   2.398       .  S
O483       Zr490   2.395       .  S
O484       Zr489   2.402       .  S
O484       Zr490   2.381       .  S
O484        H519   0.967       .  S
O485       Zr488   2.397       .  S
O485       Zr505   2.379       .  S
O485        H522   0.963       .  S
O486       Zr489   2.396       .  S
O486       Zr505   2.392       .  S
Zr487       O506   2.432       .  S
Zr487       O514   2.453       .  S
Zr487       O502   2.430       .  S
Zr487       O493   2.386       .  S
Zr487       O494   2.418       .  S
Zr487       O495   2.384       .  S
Zr487       O496   2.386       .  S
Zr487       O512   2.445       .  S
Zr488       O501   2.430       .  S
Zr488       O494   2.413       .  S
Zr488       O495   2.397       .  S
Zr488       O507   2.439       .  S
Zr488       O500   2.435       .  S
Zr489       O515   2.468       .  S
Zr489       O493   2.386       .  S
Zr489       O496   2.394       .  S
Zr489       O491   2.435       .  S
Zr489       O513   2.438       .  S
Zr490       O493   2.368       .  S
Zr490       O494   2.395       .  S
Zr490       O516   2.436       .  S
Zr490       O517   2.436       .  S
Zr490       O492   2.437       .  S
O491        H528   0.990       .  S
O492        H523   0.991       .  S
O492        H537   0.990       .  S
O494        H520   0.965       .  S
O495       Zr505   2.373       .  S
O496       Zr505   2.388       .  S
O496        H521   0.965       .  S
C499       C1549   1.474       .  S
O500        H536   0.990       .  S
O501        C503   1.284       .  A
O502        C503   1.281       .  A
O504       Zr505   2.436       .  S
O504        H533   0.990       .  S
Zr505       O510   2.405       .  S
Zr505       O508   2.438       .  S
Zr505       O509   2.442       .  S
O506        C511   1.281       .  A
O507        H524   0.990       .  S
O507        H539   0.990       .  S
O508        H525   0.990       .  S
O509        H529   0.990       .  S
O509        H538   0.989       .  S
O510        C511   1.273       .  A
O512        H531   0.990       .  S
O512        H535   0.991       .  S
O513        H527   0.990       .  S
O513        H534   0.990       .  S
O514        C518   1.290       .  A
O515        C518   1.288       .  A
O516        H526   0.990       .  S
O517        H530   0.991       .  S
C541        C542   1.198       .  T
C543        C544   1.204       .  T
C545        C546   1.201       .  T
C546       C1555   1.426       .  S
C547        C885   1.420       .  S
C547        C548   1.197       .  T
C549       C1455   1.429       .  S
C549        C550   1.202       .  T
C551        C552   1.198       .  T
C553        C554   1.200       .  T
C555       C1708   1.204       .  T
C556       C1707   1.202       .  T
C557        C558   1.199       .  T
C559        C560   1.211       .  T
C561        C562   1.198       .  T
C563        C564   1.194       .  T
C565        C566   1.200       .  T
C567        C568   1.213       .  T
C569        C570   1.198       .  T
C571        C572   1.201       .  T
C573        C574   1.198       .  T
C575        C576   1.200       .  T
C577        N578   1.358       .  A
C577        N582   1.360       .  A
C577       C1007   1.457       .  S
N578       C1731   1.353       .  A
C579       N1730   1.354       .  A
C579        N580   1.345       .  A
C579       C1151   1.424       .  S
N580       C1733   1.350       .  A
C581       N1732   1.352       .  A
C581        N582   1.360       .  A
C581        C647   1.449       .  S
C583        N584   1.370       .  A
C583        N588   1.355       .  A
C583        C648   1.474       .  S
N584        C585   1.373       .  A
C585        N586   1.352       .  A
C585       C1009   1.466       .  S
N586        C587   1.346       .  A
C587        N588   1.346       .  A
C587       C1150   1.419       .  S
C589        N594   1.365       .  A
C589        C649   1.458       .  S
N590        C591   1.352       .  A
C591       C1148   1.428       .  S
N592        C593   1.355       .  A
C593        N594   1.358       .  A
C593       C1008   1.457       .  S
C595        N596   1.360       .  A
C595        N600   1.352       .  A
C595       C1152   1.424       .  S
N596        C597   1.359       .  A
C597        N598   1.353       .  A
C597       C1147   1.428       .  S
N598        C599   1.351       .  A
C599        N600   1.350       .  A
C599       C1149   1.420       .  S
C601        N602   1.359       .  A
C601        N606   1.376       .  A
C601        C751   1.478       .  S
C603        N604   1.338       .  A
C603       C1146   1.419   1_545  S
C605        N606   1.373       .  A
C607        N608   1.358       .  A
C607        N612   1.363       .  A
C607        C653   1.465       .  S
N608        C609   1.351       .  A
C609        N610   1.355       .  A
C609       C1144   1.441       .  S
N610        C611   1.361       .  A
C611        N612   1.364       .  A
C611        C743   1.469       .  S
C613        N614   1.360       .  A
C613        N618   1.363       .  A
C613       C1143   1.441       .  S
N614        C615   1.358       .  A
C615        N616   1.343       .  A
C615       C1145   1.418       .  S
N616        C617   1.343       .  A
C617        N618   1.361       .  A
C617       C1142   1.421       .  S
C619       N1772   1.347       .  A
C619        N624   1.362       .  A
C619        C758   1.449       .  S
N620       C1771   1.347   1_455  A
N620        C621   1.340       .  A
C621        N622   1.355       .  A
C621       C1141   1.420       .  S
N622        C623   1.361       .  A
C623       N1776   1.363   1_455  A
C623        C661   1.460   1_455  S
N624       C1775   1.364       .  A
Zr625       O628   2.420       .  S
Zr625      O1783   2.431   1_455  S
Zr625      O1210   2.402   1_465  S
Zr625       O635   2.417       .  S
Zr625      O1788   2.391   1_455  S
Zr625      O1778   2.443       .  S
O626      Zr1777   2.445       .  S
O626        H682   0.991       .  S
O626        H690   0.990       .  S
O627        C647   1.273       .  A
O628        C649   1.279       .  A
O629       Zr639   2.468       .  S
O629        C648   1.289       .  A
O630       Zr638   2.435   1_554  S
O631      Zr1777   2.431       .  S
O631        C648   1.286       .  A
O632       Zr640   2.410       .  S
O632        C647   1.267       .  A
O633       Zr638   2.389   1_554  S
O633       Zr640   2.383       .  S
O634      Zr1201   2.404       .  S
O634      Zr1792   2.386       .  S
O634        H669   0.967       .  S
O635       Zr655   2.401   1_454  S
O635        H672   0.966       .  S
O636      Zr1777   2.393       .  S
O636       Zr639   2.390       .  S
O636      Zr1807   2.368   1_554  S
Zr637      O1816   2.452   1_455  S
Zr637       O652   2.435       .  S
Zr637      O1795   2.414   1_455  S
Zr637       O644   2.423       .  S
Zr637      O1222   2.401   1_455  S
Zr637       O662   2.442       .  S
Zr638       O651   2.458       .  S
Zr638       O644   2.402       .  S
Zr638       O650   2.433       .  S
Zr639       O665   2.434   1_564  S
Zr639       O646   2.405   1_554  S
Zr639       O641   2.436       .  S
Zr640      O1786   2.385   1_455  S
Zr640      O1795   2.382   1_454  S
Zr640       O644   2.377   1_554  S
Zr640      O1818   2.435   1_455  S
Zr640       O667   2.438   1_554  S
Zr640       O642   2.439       .  S
O641        H678   0.990       .  S
O642        H673   0.990       .  S
O642        H687   0.990       .  S
O643      Zr1789   2.421       .  S
O643      Zr1792   2.391   1_556  S
O644        H670   0.962       .  S
O645       Zr655   2.386   1_455  S
O646      Zr1213   2.401   1_565  S
O646      Zr1807   2.385       .  S
O646        H671   0.966       .  S
O650        H686   0.990   1_556  S
O651        C653   1.287       .  A
O652        C653   1.285       .  A
O654      Zr1807   2.439   1_554  S
O654        H683   0.990       .  S
Zr655       O660   2.399       .  S
Zr655      O1788   2.375   1_556  S
Zr655      O1798   2.386       .  S
Zr655      O1806   2.440   1_556  S
Zr655       O658   2.438   1_655  S
Zr655      O1811   2.439       .  S
O656        C661   1.284   1_455  A
O657        H674   0.990       .  S
O657        H689   0.990       .  S
O658        H675   0.990       .  S
O659      Zr1807   2.440       .  S
O659        H679   0.990       .  S
O659        H688   0.990   1_556  S
O660        C661   1.270       .  A
O662        H681   0.991       .  S
O662        H685   0.990       .  S
O663        H684   0.990       .  S
O664      Zr1789   2.447       .  S
O665        C668   1.288       .  A
O666      Zr1792   2.436       .  S
O666       H1828   0.990       .  S
O667        H680   0.991       .  S
H676       O1818   0.990       .  S
C691        N692   1.358       .  A
C691        N696   1.376       .  A
C691        C737   1.476       .  S
N692        C693   1.351       .  A
C693        N694   1.338       .  A
C693       C1139   1.415       .  S
N694        C695   1.347       .  A
C695        N696   1.373       .  A
C695        C829   1.470       .  S
C697        N698   1.345       .  A
C697        N702   1.365       .  A
C697        C739   1.451       .  S
N698        C699   1.338       .  A
C699       C1138   1.418       .  S
N700        C701   1.362       .  A
C701        C827   1.464       .  S
C703        N704   1.359       .  A
C703        N708   1.361       .  A
C703        C828   1.467       .  S
N704        C705   1.354       .  A
C705       N1858   1.356   1_455  A
C705       C1136   1.441       .  S
N706       C1857   1.357       .  A
N706        C707   1.362       .  A
C707       N1860   1.361       .  A
C707        C738   1.467       .  S
N708       C1859   1.362   1_455  A
C709       N1862   1.360   1_455  A
C709        N714   1.363       .  A
C709       C1135   1.442       .  S
N710       C1861   1.359       .  A
C711       N1864   1.343       .  A
C711       C1140   1.417       .  S
N712       C1863   1.343   1_455  A
C713        N714   1.361       .  A
C713       C1137   1.420       .  S
Zr715       O717   2.482       .  S
Zr715       O718   2.437       .  S
Zr715       O721   2.445       .  S
Zr715       O723   2.389       .  S
Zr715       O724   2.387       .  S
Zr715       O725   2.429       .  S
Zr715       O726   2.399       .  S
Zr715       O716   2.444       .  S
O716        H772   0.991       .  S
O716        H780   0.990       .  S
O717        C737   1.291       .  A
O718        C739   1.280       .  A
O719       Zr729   2.453       .  S
O719        C738   1.287       .  A
O720       Zr728   2.414       .  S
O720        C739   1.283       .  A
O721        C738   1.285       .  A
O722       Zr730   2.414       .  S
O722        C737   1.274       .  A
O723       Zr728   2.406       .  S
O723       Zr730   2.384       .  S
O724       Zr729   2.384       .  S
O724       Zr730   2.384       .  S
O724        H759   0.965       .  S
O725       Zr728   2.400       .  S
O725       Zr745   2.396       .  S
O725        H762   0.965       .  S
O726       Zr729   2.372       .  S
O726       Zr745   2.384       .  S
Zr727       O746   2.485       .  S
Zr727       O754   2.436       .  S
Zr727       O742   2.451       .  S
Zr727       O733   2.413       .  S
Zr727       O734   2.420       .  S
Zr727       O735   2.369       .  S
Zr727       O736   2.395       .  S
Zr727       O752   2.442       .  S
Zr728       O741   2.451       .  S
Zr728       O734   2.392       .  S
Zr728       O735   2.389       .  S
Zr728       O747   2.434       .  S
Zr728       O740   2.436       .  S
Zr729       O755   2.405       .  S
Zr729       O733   2.391       .  S
Zr729       O736   2.406       .  S
Zr729       O731   2.437       .  S
Zr729       O753   2.438       .  S
Zr730       O733   2.392       .  S
Zr730       O734   2.376       .  S
Zr730       O756   2.436       .  S
Zr730       O757   2.436       .  S
Zr730       O732   2.437       .  S
O731       H1920   0.990       .  S
O732        H763   0.990       .  S
O732        H777   0.990       .  S
O734        H760   0.963       .  S
O735       Zr745   2.387       .  S
O736       Zr745   2.377       .  S
O736        H761   0.966       .  S
O740        H776   0.990       .  S
O741        C743   1.286       .  A
O742        C743   1.286       .  A
O744       Zr745   2.438       .  S
O744        H773   0.990       .  S
Zr745       O750   2.412       .  S
Zr745       O748   2.439       .  S
Zr745       O749   2.439       .  S
O746        C751   1.291       .  A
O747        H764   0.990       .  S
O747        H779   0.990       .  S
O748        H765   0.990       .  S
O749        H769   0.990       .  S
O749        H778   0.990       .  S
O750        C751   1.275       .  A
O752        H771   0.991       .  S
O752        H775   0.990       .  S
O753        H767   0.990       .  S
O753        H774   0.990       .  S
O754        C758   1.283       .  A
O755        C758   1.281       .  A
O756        H766   0.990       .  S
O757        H770   0.990       .  S
H768       O1883   0.990       .  S
C781        N782   1.359       .  A
C781        N786   1.357       .  A
C781        C931   1.456       .  S
N782        C783   1.361       .  A
C783        N784   1.354       .  A
C783        C841   1.450       .  S
N784        C785   1.350       .  A
C785        N786   1.353       .  A
C785       C1133   1.426       .  S
C787        N788   1.356       .  A
C787        N792   1.366       .  A
C787        C848   1.453       .  S
N788        C789   1.348   1_455  A
C789        N790   1.348   1_655  A
C789       C1131   1.429       .  S
N790        C791   1.358       .  A
C791        N792   1.359       .  A
C791        C923   1.459       .  S
C793        N794   1.358   1_565  A
C793        N798   1.374       .  A
C793        C833   1.483       .  S
C795        N796   1.346       .  A
C795       C1129   1.428       .  S
C797        N798   1.377   1_545  A
C799        N800   1.357       .  A
C799        N804   1.355       .  A
C799       C1134   1.426       .  S
N800        C801   1.356       .  A
C801        N802   1.355       .  A
C801       C1132   1.428       .  S
N802        C803   1.354       .  A
C803        N804   1.353       .  A
C803       C1130   1.428       .  S
Zr805       O807   2.469       .  S
Zr805       O808   2.468       .  S
Zr805       O811   2.439       .  S
Zr805       O813   2.394       .  S
Zr805       O814   2.396       .  S
Zr805       O815   2.419       .  S
Zr805       O816   2.398       .  S
Zr805       O806   2.444       .  S
O806        H862   0.991       .  S
O806        H870   0.990       .  S
O807        C827   1.288       .  A
O808        C829   1.286       .  A
O809       Zr819   2.458       .  S
O809        C828   1.287       .  A
O810       Zr818   2.421       .  S
O810        C829   1.286       .  A
O811        C828   1.285       .  A
O812       Zr820   2.403       .  S
O812        C827   1.275       .  A
O813       Zr818   2.412       .  S
O813       Zr820   2.387       .  S
O814       Zr819   2.377       .  S
O814       Zr820   2.379       .  S
O814        H849   0.965       .  S
O815       Zr818   2.409       .  S
O815       Zr835   2.385       .  S
O815        H852   0.964       .  S
O816       Zr819   2.382       .  S
O816       Zr835   2.368       .  S
Zr817       O836   2.456       .  S
Zr817       O844   2.412       .  S
Zr817       O832   2.445       .  S
Zr817       O823   2.412       .  S
Zr817       O824   2.407       .  S
Zr817       O825   2.369       .  S
Zr817       O826   2.389       .  S
Zr817       O842   2.442       .  S
Zr818       O831   2.483       .  S
Zr818       O824   2.390       .  S
Zr818       O825   2.393       .  S
Zr818       O837   2.437       .  S
Zr818       O830   2.435       .  S
Zr819       O845   2.429       .  S
Zr819       O823   2.395       .  S
Zr819       O826   2.391       .  S
Zr819       O821   2.436       .  S
Zr819       O843   2.437       .  S
Zr820       O823   2.391       .  S
Zr820       O824   2.373       .  S
Zr820       O846   2.435       .  S
Zr820       O847   2.436   1_565  S
Zr820       O822   2.437   1_565  S
O821        H858   0.990       .  S
O822        H867   0.990   1_545  S
O824        H850   0.963       .  S
O825       Zr835   2.394       .  S
O826       Zr835   2.374       .  S
O826        H851   0.965       .  S
O830        H866   0.990       .  S
O831        C833   1.291       .  A
O832        C833   1.287       .  A
O834       Zr835   2.439       .  S
O834        H863   0.990       .  S
Zr835       O840   2.387       .  S
Zr835       O838   2.436       .  S
Zr835       O839   2.440       .  S
O836        C841   1.284       .  A
O837        H854   0.990       .  S
O837        H869   0.990       .  S
O838        H855   0.990       .  S
O839        H859   0.990       .  S
O839        H868   0.990       .  S
O840        C841   1.268       .  A
O842        H861   0.991       .  S
O842        H865   0.990       .  S
O843        H857   0.990       .  S
O843        H864   0.990       .  S
O844        C848   1.278       .  A
O845        C848   1.285       .  A
O846        H856   0.990   1_565  S
O847        H860   0.990   1_545  S
C871        N872   1.356       .  A
C871        N876   1.359       .  A
C871        C917   1.451       .  S
N872        C873   1.350       .  A
C873        N874   1.346       .  A
C873       C1128   1.424       .  S
N874        C875   1.352       .  A
C875        N876   1.360       .  A
C875       C1087   1.444       .  S
C877        N878   1.360       .  A
C877        N882   1.367       .  A
C877       C1079   1.464       .  S
N878        C879   1.354       .  A
C879        N880   1.346       .  A
C879       C2277   1.426       .  S
N880        C881   1.352       .  A
C881        N882   1.360       .  A
C881        C918   1.459       .  S
C883        N884   1.356       .  A
C883        N888   1.374       .  A
C883       C1094   1.479       .  S
N884        C885   1.347       .  A
C885        N886   1.346       .  A
N886        C887   1.353       .  A
C887        N888   1.376       .  A
C887        C919   1.477       .  S
C889        N890   1.354       .  A
C889        N894   1.358       .  A
C889       C1127   1.424       .  S
N890        C891   1.351       .  A
C891        N892   1.352       .  A
C891       C1124   1.419       .  S
N892        C893   1.351       .  A
C893        N894   1.357       .  A
C893       C1126   1.427       .  S
Zr895      O1473   2.450   1_455  S
Zr895       O898   2.465       .  S
Zr895      O2053   2.428       .  S
Zr895      O2056   2.408   1_455  S
Zr895       O905   2.416       .  S
Zr895       O906   2.385       .  S
Zr895       O896   2.443       .  S
O896        H952   0.990       .  S
O896        H960   0.991       .  S
O897      Zr1471   2.446   1_565  S
O897        C917   1.278       .  A
O898        C919   1.286       .  A
O899       Zr909   2.462       .  S
O899        C918   1.289       .  A
O900       Zr908   2.457   1_545  S
O901      Zr2047   2.435       .  S
O901        C918   1.286       .  A
O902       Zr910   2.396       .  S
O902        C917   1.267       .  A
O903       Zr908   2.400       .  S
O903      Zr2062   2.390   1_455  S
O904      Zr2047   2.410       .  S
O904       Zr909   2.398       .  S
O905       Zr925   2.391       .  S
O905        H942   0.964       .  S
O906      Zr2061   2.381   1_455  S
O906       Zr925   2.353       .  S
Zr907      O1510   2.444   1_455  S
Zr907       O922   2.418   1_545  S
Zr907      O2065   2.405   1_445  S
Zr907       O914   2.419   1_545  S
Zr907      O2084   2.443   1_455  S
Zr908       O921   2.471       .  S
Zr908       O914   2.404       .  S
Zr908       O920   2.434       .  S
Zr909       O935   2.453       .  S
Zr909      O2058   2.380       .  S
Zr909      O2068   2.397       .  S
Zr909       O911   2.435       .  S
Zr909       O933   2.436       .  S
Zr910      O2055   2.391       .  S
Zr910       O913   2.383       .  S
Zr910      O2066   2.359       .  S
Zr910       O936   2.435       .  S
Zr910       O937   2.437       .  S
Zr910       O912   2.436       .  S
O911        H948   0.990       .  S
O912        H943   0.990       .  S
O912        H957   0.990       .  S
O913      Zr2059   2.404   1_565  S
O914      Zr2062   2.361   1_455  S
O914        H940   0.962       .  S
O915       Zr925   2.390       .  S
O916      Zr2061   2.401   1_455  S
O916       Zr925   2.392       .  S
O916        H941   0.966       .  S
O920        H956   0.990       .  S
O921        C923   1.291       .  A
O922        C923   1.282       .  A
O924       Zr925   2.441       .  S
O924        H953   0.990       .  S
Zr925       O930   2.380       .  S
Zr925       O928   2.437       .  S
Zr925       O929   2.439       .  S
O926        C931   1.286       .  A
O927        H944   0.990       .  S
O927        H959   0.990       .  S
O928        H945   0.990       .  S
O929        H949   0.990       .  S
O929        H958   0.990       .  S
O930        C931   1.267       .  A
O932      Zr2059   2.442       .  S
O932        H951   0.990   1_545  S
O932        H955   0.991       .  S
O933        H947   0.990       .  S
O934      Zr1483   2.440       .  S
O934        C938   1.282       .  A
O935        C938   1.290       .  A
O936        H946   0.990       .  S
O937        H950   0.991       .  S
C961        N962   1.358       .  A
C961       C1021   1.459       .  S
C963        N964   1.347       .  A
C963       C1121   1.423       .  S
N964        C965   1.351       .  A
C965        N966   1.363       .  A
C965       C1073   1.450       .  S
C967        N968   1.360       .  A
C967        N972   1.369       .  A
C967       C1074   1.467       .  S
N968        C969   1.353       .  A
C969        N970   1.347       .  A
C969       C1120   1.432       .  S
N970        C971   1.355       .  A
C971        N972   1.361       .  A
C971       C1013   1.465       .  S
C973        N974   1.374   1_655  A
C973        N978   1.359       .  A
C973       C2227   1.483       .  S
N974        C975   1.376       .  A
C975        N976   1.351       .  A
C975       C1028   1.473       .  S
N976        C977   1.344       .  A
C977        N978   1.349   1_455  A
C977       C1118   1.424       .  S
C979        N984   1.359   1_655  A
C979       C2274   1.424       .  S
N980        C981   1.351   1_655  A
C981       C1117   1.425       .  S
N982        C983   1.354       .  A
C983        N984   1.358       .  A
C983       C1119   1.432       .  S
Zr985       O987   2.451       .  S
Zr985       O988   2.443       .  S
Zr985       O991   2.408       .  S
Zr985       O993   2.384       .  S
Zr985       O994   2.399       .  S
Zr985       O995   2.417       .  S
Zr985       O996   2.389       .  S
Zr985       O986   2.444       .  S
O986       H1042   0.990       .  S
O986       H1050   0.991       .  S
O987       C1007   1.280       .  A
O988       C1009   1.282       .  A
O989       Zr999   2.476       .  S
O989       C1008   1.291       .  A
O990       Zr998   2.450       .  S
O990       C1009   1.289       .  A
O991       C1008   1.280       .  A
O992      Zr1000   2.402       .  S
O992       C1007   1.269       .  A
O993       Zr998   2.405       .  S
O993      Zr1000   2.385       .  S
O994       Zr999   2.393       .  S
O994      Zr1000   2.378       .  S
O994       H1029   0.966       .  S
O995       Zr998   2.404       .  S
O995      Zr1015   2.391       .  S
O995       H1032   0.964       .  S
O996       Zr999   2.377       .  S
O996      Zr1015   2.361       .  S
Zr997      O1016   2.472       .  S
Zr997      O1024   2.440       .  S
Zr997      O1012   2.432       .  S
Zr997      O1003   2.414       .  S
Zr997      O1004   2.418       .  S
Zr997      O1005   2.374       .  S
Zr997      O1006   2.391       .  S
Zr997      O1022   2.443       .  S
Zr998      O1011   2.474       .  S
Zr998      O1004   2.403       .  S
Zr998      O1005   2.394       .  S
Zr998      O1017   2.436       .  S
Zr998      O1010   2.433       .  S
Zr999      O1025   2.453       .  S
Zr999      O1003   2.387       .  S
Zr999      O1006   2.401       .  S
Zr999      O1001   2.436       .  S
Zr999      O1023   2.438       .  S
Zr1000     O1003   2.397       .  S
Zr1000     O1004   2.363       .  S
Zr1000     O1026   2.436       .  S
Zr1000     O1027   2.435       .  S
Zr1000     O1002   2.438       .  S
O1001      H1038   0.990       .  S
O1002      H1033   0.990       .  S
O1002      H1047   0.990       .  S
O1004      H1030   0.961       .  S
O1005     Zr1015   2.389       .  S
O1006     Zr1015   2.389       .  S
O1006      H1031   0.966       .  S
O1010      H1046   0.990       .  S
O1011      C1013   1.291       .  A
O1012      C1013   1.284       .  A
O1014     Zr1015   2.442       .  S
O1014      H1043   0.990   1_565  S
Zr1015     O1020   2.389       .  S
Zr1015     O1018   2.437       .  S
Zr1015     O1019   2.440       .  S
O1016      C1021   1.285       .  A
O1017      H1034   0.990       .  S
O1017      H1049   0.990       .  S
O1018      H1035   0.990       .  S
O1019      H1039   0.990       .  S
O1019      H1048   0.990       .  S
O1020      C1021   1.269       .  A
O1022      H1041   0.990       .  S
O1022      H1045   0.990       .  S
O1023      H1037   0.990       .  S
O1023      H1044   0.990       .  S
O1024      C1028   1.282       .  A
O1025      C1028   1.291       .  A
O1026      H1036   0.990       .  S
O1027      H1040   0.990       .  S
Zr1051     O1053   2.452       .  S
Zr1051     O1054   2.443       .  S
Zr1051     O1057   2.420       .  S
Zr1051     O1059   2.375       .  S
Zr1051     O1060   2.391       .  S
Zr1051     O1061   2.412       .  S
Zr1051     O1062   2.414       .  S
Zr1051     O1052   2.443       .  S
O1052      H1108   0.990       .  S
O1052      H1116   0.991       .  S
O1053      C1073   1.284       .  A
O1054      C1075   1.286       .  A
O1055     Zr1065   2.451       .  S
O1055      C1074   1.287       .  A
O1056     Zr1064   2.470       .  S
O1056      C1075   1.288       .  A
O1057      C1074   1.279       .  A
O1058     Zr1066   2.392       .  S
O1058      C1073   1.271       .  A
O1059     Zr1064   2.401       .  S
O1059     Zr1066   2.393       .  S
O1060     Zr1065   2.398       .  S
O1060     Zr1066   2.384       .  S
O1060      H1095   0.967       .  S
O1061     Zr1064   2.398       .  S
O1061     Zr1081   2.379       .  S
O1061      H1098   0.963       .  S
O1062     Zr1065   2.398       .  S
O1062     Zr1081   2.397       .  S
Zr1063     O1082   2.420       .  S
Zr1063     O1090   2.437       .  S
Zr1063     O1078   2.433       .  S
Zr1063     O1069   2.388       .  S
Zr1063     O1070   2.411       .  S
Zr1063     O1071   2.386       .  S
Zr1063     O1072   2.393       .  S
Zr1063     O1088   2.445       .  S
Zr1064     O1077   2.442       .  S
Zr1064     O1070   2.409       .  S
Zr1064     O1071   2.398       .  S
Zr1064     O1083   2.438       .  S
Zr1064     O1076   2.434       .  S
Zr1065     O1091   2.469       .  S
Zr1065     O1069   2.392       .  S
Zr1065     O1072   2.393       .  S
Zr1065     O1067   2.435       .  S
Zr1065     O1089   2.438       .  S
Zr1066     O1069   2.372       .  S
Zr1066     O1070   2.391       .  S
Zr1066     O1092   2.437       .  S
Zr1066     O1093   2.438       .  S
Zr1066     O1068   2.439       .  S
O1067      H1104   0.990       .  S
O1068      H1099   0.990       .  S
O1068      H1113   0.990       .  S
O1070      H1096   0.965       .  S
O1071     Zr1081   2.378       .  S
O1072     Zr1081   2.383       .  S
O1072      H1097   0.966       .  S
C1075      C2125   1.477       .  S
O1076      H1112   0.990       .  S
O1077      C1079   1.286       .  A
O1078      C1079   1.281       .  A
O1080     Zr1081   2.437       .  S
O1080      H1109   0.990       .  S
Zr1081     O1086   2.410       .  S
Zr1081     O1084   2.436       .  S
Zr1081     O1085   2.440       .  S
O1082      C1087   1.278       .  A
O1083      H1100   0.990       .  S
O1083      H1115   0.990       .  S
O1084      H1101   0.990       .  S
O1085      H1105   0.990       .  S
O1085      H1114   0.990       .  S
O1086      C1087   1.274       .  A
O1088      H1107   0.990       .  S
O1088      H1111   0.991       .  S
O1089      H1103   0.990       .  S
O1089      H1110   0.990       .  S
O1090      C1094   1.287       .  A
O1091      C1094   1.288       .  A
O1092      H1102   0.990       .  S
O1093      H1106   0.990       .  S
C1117      C1118   1.200       .  T
C1119      C1120   1.204       .  T
C1121      C1122   1.198       .  T
C1122      C2131   1.422       .  S
C1123      C1124   1.196       .  T
C1125      C2031   1.426       .  S
C1125      C1126   1.201       .  T
C1127      C1128   1.199       .  T
C1129      C1130   1.201       .  T
C1131      C2284   1.202       .  T
C1132      C2283   1.201       .  T
C1133      C1134   1.200       .  T
C1135      C1136   1.209       .  T
C1137      C1138   1.197       .  T
C1139      C1140   1.195       .  T
C1141      C1142   1.198       .  T
C1143      C1144   1.209       .  T
C1145      C1146   1.196       .  T
C1147      C1148   1.202       .  T
C1149      C1150   1.196       .  T
C1151      C1152   1.199       .  T
C1153      N1154   1.358       .  A
C1153      N1158   1.358       .  A
C1153      C1583   1.452       .  S
C1155      N1156   1.347       .  A
C1155      C1727   1.423   1_455  S
C1157      N1158   1.358       .  A
C1157      C1223   1.446       .  S
C1159      N1160   1.371       .  A
C1159      N1164   1.355       .  A
C1159      C1224   1.475       .  S
N1160      C1161   1.375       .  A
C1161      N1162   1.351       .  A
C1161      C1585   1.467       .  S
N1162      C1163   1.344       .  A
C1163      N1164   1.346       .  A
C1163      C1726   1.416       .  S
C1165      N1742   1.358       .  A
C1165      N1170   1.368       .  A
C1165      C1225   1.460       .  S
N1166      C1741   1.360   1_545  A
N1166      C1167   1.352       .  A
C1167      N1744   1.347   1_545  A
C1167      C1724   1.430       .  S
N1168      C1743   1.345       .  A
N1168      C1169   1.354       .  A
C1169      N1170   1.361       .  A
C1169      C1584   1.461       .  S
C1171      N1172   1.359       .  A
C1171      N1176   1.352       .  A
C1171      C1728   1.423       .  S
N1172      C1173   1.358       .  A
C1173      N1174   1.352       .  A
C1173      C1723   1.429       .  S
N1174      C1175   1.352       .  A
C1175      N1176   1.350       .  A
C1175      C1725   1.417       .  S
C1177      N1178   1.360       .  A
C1177      N1182   1.378       .  A
C1177      C1327   1.483       .  S
N1178      C1755   1.353       .  A
C1179      N1754   1.352       .  A
C1179      N1180   1.339       .  A
C1179      C1722   1.420       .  S
N1180      C1757   1.348       .  A
C1181      N1756   1.348       .  A
C1181      N1182   1.375       .  A
C1181      C1820   1.476       .  S
C1183      N1184   1.360       .  A
C1183      N1188   1.363       .  A
C1183      C1229   1.468       .  S
N1184      C1185   1.353       .  A
C1185      N1186   1.356       .  A
C1185      C1720   1.446       .  S
N1186      C1187   1.363       .  A
C1187      N1188   1.363       .  A
C1187      C1319   1.468       .  S
C1189      N1190   1.362       .  A
C1189      N1194   1.363       .  A
C1189      C1719   1.446       .  S
N1190      C1191   1.360       .  A
C1191      N1192   1.343       .  A
C1191      C1721   1.421       .  S
N1192      C1193   1.343       .  A
C1193      N1194   1.361       .  A
C1193      C1718   1.422       .  S
C1195      N1200   1.360       .  A
C1195      C1334   1.446       .  S
N1196      C1197   1.339       .  A
C1197      N1198   1.355       .  A
C1197      C1717   1.421       .  S
N1198      C1199   1.362       .  A
C1199      C1237   1.465       .  S
Zr1201     O1779   2.421       .  S
Zr1201     O1204   2.420       .  S
Zr1201     O1785   2.397       .  S
Zr1201     O1211   2.415       .  S
O1202      H1258   0.990       .  S
O1202      H1266   0.990       .  S
O1203     Zr1777   2.415   1_545  S
O1203      C1223   1.271       .  A
O1204      C1225   1.278       .  A
O1205     Zr1215   2.468       .  S
O1205      C1224   1.288       .  A
O1206     Zr1214   2.432   1_554  S
O1206      C1801   1.285   1_545  A
O1207      C1224   1.284       .  A
O1208     Zr1216   2.414       .  S
O1208      C1223   1.268       .  A
O1209     Zr1777   2.399   1_545  S
O1209     Zr1214   2.394   1_554  S
O1209     Zr1216   2.383       .  S
O1210     Zr1791   2.393   1_545  S
O1210      H1245   0.966       .  S
O1211     Zr1790   2.411   1_554  S
O1211     Zr1231   2.402   1_554  S
O1211      H1248   0.966       .  S
O1212     Zr1215   2.386       .  S
Zr1213     O1808   2.469   1_545  S
Zr1213     O1228   2.434       .  S
Zr1213     O1220   2.424       .  S
Zr1213     O1797   2.377   1_545  S
Zr1213     O1238   2.444       .  S
Zr1214     O1227   2.466       .  S
Zr1214     O1787   2.412   1_546  S
Zr1214     O1220   2.401       .  S
Zr1214     O1797   2.386   1_545  S
Zr1214     O1809   2.436   1_545  S
Zr1214     O1226   2.434       .  S
Zr1215     O1241   2.429   1_554  S
Zr1215     O1786   2.390       .  S
Zr1215     O1795   2.396   1_554  S
Zr1215     O1222   2.406   1_554  S
Zr1215     O1217   2.435   1_554  S
Zr1215     O1815   2.438       .  S
Zr1216     O1220   2.384   1_554  S
Zr1216     O1243   2.439   1_554  S
Zr1216     O1218   2.440       .  S
O1217      H1254   0.990   1_556  S
O1218      H1249   0.989       .  S
O1218      H1263   0.990       .  S
O1219     Zr1791   2.400   1_546  S
O1220      H1246   0.961       .  S
O1221     Zr1789   2.376       .  S
O1221     Zr1790   2.385       .  S
O1221     Zr1231   2.392       .  S
O1222      H1247   0.967       .  S
C1225      O1782   1.284       .  A
O1226      H1262   0.990   1_556  S
O1227      C1229   1.289       .  A
O1228      C1229   1.285       .  A
O1230      H1259   0.990       .  S
Zr1231     O1236   2.399       .  S
Zr1231     O1234   2.436       .  S
O1232     Zr1789   2.472       .  S
O1232      C1237   1.285       .  A
O1233     Zr1790   2.435       .  S
O1233      H1250   0.990       .  S
O1233      H1265   0.990       .  S
O1234      H1251   0.990       .  S
O1235      H1255   0.990       .  S
O1235      H1264   0.990   1_556  S
O1236      C1237   1.269       .  A
O1238      H1257   0.991       .  S
O1238      H1261   0.990       .  S
O1239     Zr1791   2.436   1_545  S
O1239      H1829   0.990       .  S
O1239      H1260   0.990       .  S
O1240      C1820   1.284       .  A
O1241      C1244   1.287       .  A
O1243      H1256   0.990       .  S
C1244      C1757   1.471       .  S
C1244      O1816   1.285       .  A
H1253      O1815   0.989       .  S
C1267      N1268   1.359       .  A
C1267      N1272   1.375       .  A
C1267      C1313   1.477       .  S
N1268      C1269   1.352       .  A
C1269      N1270   1.338       .  A
C1269      C1715   1.416       .  S
N1270      C1271   1.347       .  A
C1271      N1272   1.372       .  A
C1271      C1405   1.469       .  S
C1273      N1274   1.345       .  A
C1273      N1278   1.364       .  A
C1273      C1315   1.450       .  S
N1274      C1275   1.338   1_545  A
C1275      N1852   1.355       .  A
C1275      C1714   1.418       .  S
N1276      C1851   1.355       .  A
N1276      C1277   1.362       .  A
C1277      N1854   1.366       .  A
C1277      C1403   1.463       .  S
N1278      C1853   1.366   1_545  A
C1279      N1280   1.360       .  A
C1279      N1284   1.361       .  A
C1279      C1404   1.469       .  S
N1280      C1281   1.356       .  A
C1281      C1712   1.443       .  S
N1282      C1283   1.359       .  A
C1283      C1314   1.470       .  S
C1285      N1290   1.362       .  A
C1285      C1711   1.443       .  S
N1286      C1863   1.360   1_545  A
C1287      N1862   1.358       .  A
C1287      C1716   1.417       .  S
N1288      C1865   1.344       .  A
C1289      N1864   1.343       .  A
C1289      N1290   1.361   1_565  A
C1289      C1713   1.419       .  S
Zr1291     O1293   2.487       .  S
Zr1291     O1294   2.441       .  S
Zr1291     O1297   2.447       .  S
Zr1291     O1299   2.390       .  S
Zr1291     O1300   2.382       .  S
Zr1291     O1301   2.432       .  S
Zr1291     O1302   2.404       .  S
Zr1291     O1292   2.444       .  S
O1292      H1348   0.991       .  S
O1292      H1356   0.990       .  S
O1293      C1313   1.292       .  A
O1294      C1315   1.281       .  A
O1295     Zr1305   2.446       .  S
O1295      C1314   1.286       .  A
O1296     Zr1304   2.406       .  S
O1296      C1315   1.281       .  A
O1297      C1314   1.286       .  A
O1298     Zr1306   2.411       .  S
O1298      C1313   1.274       .  A
O1299     Zr1304   2.405       .  S
O1299     Zr1306   2.382       .  S
O1300     Zr1305   2.382       .  S
O1300     Zr1306   2.382       .  S
O1300      H1335   0.966       .  S
O1301     Zr1304   2.401       .  S
O1301     Zr1321   2.393       .  S
O1301      H1338   0.965       .  S
O1302     Zr1305   2.372       .  S
O1302     Zr1321   2.387       .  S
Zr1303     O1322   2.491       .  S
Zr1303     O1330   2.438       .  S
Zr1303     O1318   2.449       .  S
Zr1303     O1309   2.414       .  S
Zr1303     O1310   2.423       .  S
Zr1303     O1311   2.372       .  S
Zr1303     O1312   2.391       .  S
Zr1303     O1328   2.442       .  S
Zr1304     O1317   2.454       .  S
Zr1304     O1310   2.389       .  S
Zr1304     O1311   2.390       .  S
Zr1304     O1323   2.435       .  S
Zr1304     O1316   2.437       .  S
Zr1305     O1331   2.393       .  S
Zr1305     O1309   2.390       .  S
Zr1305     O1312   2.403       .  S
Zr1305     O1307   2.435   1_655  S
Zr1305     O1329   2.436       .  S
Zr1306     O1309   2.391       .  S
Zr1306     O1310   2.377       .  S
Zr1306     O1332   2.436       .  S
Zr1306     O1333   2.436       .  S
Zr1306     O1308   2.439       .  S
O1308      H1339   0.990       .  S
O1308      H1353   0.990       .  S
O1310      H1336   0.963       .  S
O1311     Zr1321   2.391       .  S
O1312     Zr1321   2.373       .  S
O1312      H1337   0.966       .  S
O1316      H1352   0.990       .  S
O1317      C1319   1.287       .  A
O1318      C1319   1.286       .  A
O1320     Zr1321   2.438       .  S
O1320      H1349   0.990       .  S
Zr1321     O1326   2.413       .  S
Zr1321     O1324   2.437       .  S
Zr1321     O1325   2.440       .  S
O1322      C1327   1.293       .  A
O1323      H1340   0.990       .  S
O1323      H1355   0.990       .  S
O1324      H1341   0.990       .  S
O1325      H1345   0.990       .  S
O1325      H1354   0.990       .  S
O1326      C1327   1.277       .  A
O1328      H1347   0.991       .  S
O1328      H1351   0.990       .  S
O1329      H1343   0.990       .  S
O1329      H1350   0.990   1_655  S
O1330      C1334   1.283       .  A
O1331      C1334   1.279       .  A
O1332      H1342   0.990       .  S
O1333      H1346   0.990       .  S
C1357      N1358   1.359       .  A
C1357      N1362   1.357       .  A
C1357      C1507   1.452       .  S
N1358      C1359   1.361       .  A
C1359      N1360   1.353       .  A
C1359      C1417   1.448       .  S
N1360      C1361   1.348       .  A
C1361      N1362   1.352       .  A
C1361      C1709   1.426       .  S
C1363      N1364   1.358       .  A
C1363      N1368   1.366       .  A
C1363      C1424   1.458       .  S
N1364      C1365   1.350       .  A
C1365      N1366   1.348       .  A
C1365      C1707   1.429       .  S
N1366      C1367   1.356       .  A
C1367      N1368   1.359       .  A
C1367      C1499   1.458       .  S
C1369      N1370   1.358       .  A
C1369      N1374   1.375       .  A
C1369      C1409   1.485       .  S
N1370      C1947   1.349       .  A
C1371      N1946   1.348       .  A
C1371      N1372   1.346       .  A
C1371      C1705   1.425       .  S
N1372      C1949   1.353       .  A
C1373      N1948   1.353       .  A
C1373      N1374   1.378       .  A
C1373      C2090   1.477       .  S
C1375      N1376   1.358       .  A
C1375      N1380   1.354       .  A
C1375      C1710   1.426       .  S
N1376      C1377   1.357       .  A
C1377      N1378   1.356       .  A
C1377      C1708   1.433       .  S
N1378      C1379   1.355       .  A
C1379      N1380   1.352       .  A
C1379      C1706   1.426       .  S
Zr1381     O1383   2.462       .  S
Zr1381     O1384   2.462       .  S
Zr1381     O1387   2.444       .  S
Zr1381     O1389   2.396       .  S
Zr1381     O1390   2.397       .  S
Zr1381     O1391   2.419       .  S
Zr1381     O1392   2.394       .  S
Zr1381     O1382   2.444       .  S
O1382      H1438   0.991       .  S
O1382      H1446   0.990       .  S
O1383      C1403   1.287       .  A
O1384      C1405   1.284       .  A
O1385     Zr1395   2.459       .  S
O1385      C1404   1.288       .  A
O1386     Zr1394   2.422       .  S
O1386      C1405   1.286       .  A
O1387      C1404   1.286       .  A
O1388     Zr1396   2.406       .  S
O1388      C1403   1.276       .  A
O1389     Zr1394   2.414       .  S
O1389     Zr1396   2.386       .  S
O1390     Zr1395   2.379       .  S
O1390     Zr1396   2.381       .  S
O1390      H1425   0.966       .  S
O1391     Zr1394   2.407       .  S
O1391     Zr1411   2.387       .  S
O1391      H1428   0.964       .  S
O1392     Zr1395   2.383       .  S
O1392     Zr1411   2.369       .  S
Zr1393     O1412   2.454       .  S
Zr1393     O1420   2.415       .  S
Zr1393     O1408   2.447       .  S
Zr1393     O1399   2.415       .  S
Zr1393     O1400   2.408       .  S
Zr1393     O1401   2.371       .  S
Zr1393     O1402   2.390       .  S
Zr1393     O1418   2.442       .  S
Zr1394     O1407   2.484       .  S
Zr1394     O1400   2.393       .  S
Zr1394     O1401   2.390       .  S
Zr1394     O1413   2.436       .  S
Zr1394     O1406   2.434       .  S
Zr1395     O1421   2.433       .  S
Zr1395     O1399   2.397       .  S
Zr1395     O1402   2.386       .  S
Zr1395     O1397   2.435       .  S
Zr1395     O1419   2.439       .  S
Zr1396     O1399   2.397       .  S
Zr1396     O1400   2.371       .  S
Zr1396     O1422   2.435       .  S
Zr1396     O1423   2.436       .  S
Zr1396     O1398   2.437       .  S
O1397      H1434   0.990       .  S
O1398      H2005   0.990       .  S
O1398      H1443   0.990       .  S
O1400      H1426   0.963       .  S
O1401     Zr1411   2.391       .  S
O1402     Zr1411   2.382       .  S
O1402      H1427   0.965       .  S
O1406      H1442   0.990       .  S
O1407      C1409   1.292       .  A
O1408      C1409   1.287       .  A
O1410     Zr1411   2.440       .  S
O1410      H1439   0.990       .  S
Zr1411     O1416   2.390       .  S
Zr1411     O1414   2.437       .  S
Zr1411     O1415   2.438       .  S
O1412      C1417   1.284       .  A
O1413      H1430   0.990       .  S
O1413      H1445   0.990       .  S
O1414      H1431   0.990       .  S
O1415      H1435   0.990       .  S
O1415      H1444   0.990       .  S
O1416      C1417   1.268       .  A
O1418      H1437   0.991       .  S
O1418      H1441   0.990       .  S
O1419      H1433   0.990       .  S
O1419      H1440   0.990       .  S
O1420      C1424   1.279       .  A
O1421      C1424   1.285       .  A
O1422      H1432   0.990       .  S
O1423      H1436   0.990       .  S
H1429      O1974   0.990       .  S
C1447      N1448   1.358       .  A
C1447      N1452   1.360       .  A
C1447      C1493   1.455       .  S
N1448      C1449   1.352       .  A
C1449      N1450   1.346       .  A
C1449      C1704   1.424       .  S
N1450      C1451   1.352       .  A
C1451      N1452   1.361       .  A
C1451      C1663   1.450       .  S
C1453      N1454   1.360   1_655  A
C1453      N1458   1.364       .  A
C1453      C1655   1.459       .  S
N1454      C1455   1.354       .  A
C1455      N1456   1.348       .  A
N1456      C1457   1.354       .  A
C1457      N1458   1.356   1_455  A
C1457      C1494   1.457   1_455  S
C1459      N1460   1.357       .  A
C1459      N1464   1.376       .  A
C1459      C1670   1.485       .  S
N1460      C1461   1.347   1_545  A
C1461      N1462   1.346       .  A
C1461      C2275   1.422       .  S
N1462      C1463   1.354   1_565  A
C1463      N1464   1.377       .  A
C1463      C1495   1.480       .  S
C1465      N1466   1.352       .  A
C1465      N1470   1.359       .  A
C1465      C1703   1.422       .  S
N1466      C1467   1.349       .  A
C1467      N1468   1.353       .  A
C1467      C1700   1.417       .  S
N1468      C1469   1.353       .  A
C1469      N1470   1.358       .  A
C1469      C1702   1.429       .  S
Zr1471     O1474   2.467       .  S
Zr1471     O2055   2.390   1_545  S
Zr1471     O1481   2.416       .  S
Zr1471     O1482   2.391       .  S
Zr1471     O1472   2.443       .  S
O1472      H1528   0.990   1_545  S
O1472      H1536   0.990       .  S
O1473      C1493   1.280       .  A
O1474      C1495   1.286       .  A
O1475     Zr1485   2.466       .  S
O1475      C1494   1.290       .  A
O1476     Zr1484   2.445       .  S
O1476      C2071   1.290       .  A
O1477      C1494   1.285   1_455  A
O1478     Zr1486   2.400       .  S
O1478      C1493   1.268       .  A
O1479     Zr2047   2.391       .  S
O1479     Zr1484   2.395       .  S
O1480     Zr1485   2.399   1_565  S
O1480     Zr2062   2.383       .  S
O1480      H2091   0.967       .  S
O1481     Zr2060   2.400   1_545  S
O1481     Zr1501   2.393       .  S
O1481      H1518   0.964       .  S
O1482     Zr1501   2.358       .  S
Zr1483     O2078   2.467       .  S
Zr1483     O1498   2.426       .  S
Zr1483     O1490   2.415       .  S
Zr1483     O2067   2.378       .  S
Zr1483     O2068   2.384       .  S
Zr1484     O1497   2.461       .  S
Zr1484     O2057   2.405       .  S
Zr1484     O1490   2.403       .  S
Zr1484     O2067   2.398       .  S
Zr1484     O2079   2.433       .  S
Zr1484     O1496   2.434       .  S
Zr1485     O1511   2.457       .  S
Zr1485     O2065   2.379   1_545  S
Zr1485     O1487   2.436       .  S
Zr1485     O1509   2.436   1_545  S
Zr1486     O2056   2.375       .  S
Zr1486     O1489   2.389       .  S
Zr1486     O1512   2.435       .  S
Zr1486     O1513   2.436       .  S
Zr1486     O1488   2.436       .  S
O1487      H1524   0.990       .  S
O1488      H1519   0.990       .  S
O1488      H1533   0.990       .  S
O1489     Zr2061   2.380       .  S
O1490      H1516   0.963       .  S
O1491     Zr2059   2.376       .  S
O1491     Zr2060   2.392   1_545  S
O1491     Zr1501   2.387       .  S
O1492     Zr2059   2.389       .  S
O1492     Zr1501   2.389       .  S
O1492      H1517   0.966       .  S
C1495      O2052   1.289       .  A
O1496      H1532   0.990       .  S
O1497      C1499   1.289       .  A
O1498      C1499   1.282       .  A
O1500     Zr1501   2.439       .  S
O1500      H1529   0.990       .  S
Zr1501     O1506   2.383       .  S
Zr1501     O1504   2.437       .  S
Zr1501     O1505   2.439       .  S
O1502     Zr2059   2.463       .  S
O1502      C1507   1.284       .  A
O1503     Zr2060   2.434   1_545  S
O1503      H1520   0.990       .  S
O1503      H1535   0.990       .  S
O1504      H1521   0.990       .  S
O1505      H1525   0.990       .  S
O1505      H1534   0.990       .  S
O1506      C1507   1.267       .  A
O1508      H1527   0.990       .  S
O1508      H1531   0.990   1_655  S
O1509      H1523   0.990       .  S
O1509      H2106   0.990   1_565  S
O1510      C1514   1.283       .  A
O1511      C1514   1.291       .  A
O1512      H1522   0.990       .  S
O1513      H1526   0.990       .  S
C1514      C1949   1.475       .  S
H1515      O2056   0.967       .  S
H1530      O2085   0.990       .  S
C1537      N1538   1.357       .  A
C1537      N2118   1.363       .  A
C1537      C1597   1.458       .  S
N1538      C2115   1.351       .  A
C1539      N2114   1.352   1_545  A
C1539      N1540   1.347       .  A
C1539      C1697   1.425       .  S
N1540      C1541   1.352       .  A
C1541      N1542   1.366       .  A
C1541      C1649   1.456       .  S
N1542      C2113   1.365   1_545  A
C1543      N1544   1.359       .  A
C1543      N1548   1.370       .  A
C1543      C1650   1.464       .  S
N1544      C1545   1.351       .  A
C1545      N1546   1.347       .  A
C1545      C1696   1.431       .  S
N1546      C1547   1.355       .  A
C1547      N1548   1.362       .  A
C1547      C1589   1.465       .  S
C1549      N1550   1.372       .  A
C1549      N1554   1.356       .  A
N1550      C1551   1.374       .  A
C1551      N1552   1.351       .  A
C1551      C1604   1.468       .  S
N1552      C1553   1.344       .  A
C1553      N1554   1.346       .  A
C1553      C1694   1.420       .  S
C1555      N2132   1.353   1_545  A
C1555      N1560   1.358       .  A
N1556      C2131   1.351       .  A
N1556      C1557   1.350       .  A
C1557      N2134   1.355       .  A
C1557      C1693   1.421       .  S
N1558      C2133   1.354   1_545  A
N1558      C1559   1.355       .  A
C1559      N1560   1.358       .  A
C1559      C1695   1.432       .  S
Zr1561     O1563   2.444       .  S
Zr1561     O1564   2.436       .  S
Zr1561     O1567   2.413       .  S
Zr1561     O1569   2.389       .  S
Zr1561     O1570   2.398       .  S
Zr1561     O1571   2.419       .  S
Zr1561     O1572   2.386       .  S
Zr1561     O1562   2.445       .  S
O1562      H1618   0.990       .  S
O1562      H1626   0.991       .  S
O1563      C1583   1.278       .  A
O1564      C1585   1.280       .  A
O1565     Zr1575   2.473       .  S
O1565      C1584   1.290       .  A
O1566     Zr1574   2.457       .  S
O1566      C1585   1.291       .  A
O1567      C1584   1.281       .  A
O1568     Zr1576   2.399       .  S
O1568      C1583   1.268       .  A
O1569     Zr1574   2.404       .  S
O1569     Zr1576   2.387       .  S
O1570     Zr1575   2.390       .  S
O1570     Zr1576   2.381       .  S
O1570      H1605   0.966       .  S
O1571     Zr1574   2.405       .  S
O1571     Zr1591   2.391       .  S
O1571      H1608   0.964       .  S
O1572     Zr1575   2.378       .  S
O1572     Zr1591   2.364       .  S
Zr1573     O1592   2.469       .  S
Zr1573     O1600   2.442       .  S
Zr1573     O1588   2.429       .  S
Zr1573     O1579   2.411       .  S
Zr1573     O1580   2.419       .  S
Zr1573     O1581   2.377       .  S
Zr1573     O1582   2.390       .  S
Zr1573     O1598   2.443       .  S
Zr1574     O1587   2.477       .  S
Zr1574     O1580   2.405       .  S
Zr1574     O1581   2.397       .  S
Zr1574     O1593   2.434       .  S
Zr1574     O1586   2.435       .  S
Zr1575     O1601   2.443       .  S
Zr1575     O1579   2.388       .  S
Zr1575     O1582   2.401       .  S
Zr1575     O1577   2.435       .  S
Zr1575     O1599   2.437       .  S
Zr1576     O1579   2.392       .  S
Zr1576     O1580   2.361       .  S
Zr1576     O1602   2.435       .  S
Zr1576     O1603   2.436       .  S
Zr1576     O1578   2.438       .  S
O1577      H1614   0.990       .  S
O1578      H1609   0.990       .  S
O1578      H1623   0.990       .  S
O1580      H1606   0.961       .  S
O1581     Zr1591   2.391       .  S
O1582     Zr1591   2.385       .  S
O1582      H1607   0.966       .  S
O1586      H1622   0.990       .  S
O1587      C1589   1.292       .  A
O1588      C1589   1.284       .  A
O1590     Zr1591   2.440       .  S
O1590      H1619   0.990       .  S
Zr1591     O1596   2.390       .  S
Zr1591     O1594   2.437       .  S
Zr1591     O1595   2.439       .  S
O1592      C1597   1.285       .  A
O1593      H1610   0.990       .  S
O1593      H1625   0.990       .  S
O1594      H1611   0.990       .  S
O1595      H1615   0.990       .  S
O1595      H1624   0.990       .  S
O1596      C1597   1.268       .  A
O1598      H1617   0.990       .  S
O1598      H1621   0.990       .  S
O1599      H1613   0.990       .  S
O1599      H1620   0.990       .  S
O1600      C1604   1.283       .  A
O1601      C1604   1.289       .  A
O1602      H1612   0.990       .  S
O1603      H1616   0.990       .  S
Zr1627     O1629   2.465       .  S
Zr1627     O1630   2.443       .  S
Zr1627     O1633   2.416       .  S
Zr1627     O1635   2.374       .  S
Zr1627     O1636   2.390       .  S
Zr1627     O1637   2.413       .  S
Zr1627     O1638   2.413       .  S
Zr1627     O1628   2.443       .  S
O1628      H1684   0.990       .  S
O1628      H1692   0.991       .  S
O1629      C1649   1.287       .  A
O1630      C1651   1.285       .  A
O1631     Zr1641   2.445       .  S
O1631      C1650   1.287       .  A
O1632     Zr1640   2.474       .  S
O1632      C1651   1.288       .  A
O1633      C1650   1.278       .  A
O1634     Zr1642   2.394       .  S
O1634      C1649   1.272       .  A
O1635     Zr1640   2.399       .  S
O1635     Zr1642   2.393       .  S
O1636     Zr1641   2.396       .  S
O1636     Zr1642   2.388       .  S
O1636      H1671   0.967       .  S
O1637     Zr1640   2.396       .  S
O1637     Zr1657   2.381       .  S
O1637      H1674   0.963       .  S
O1638     Zr1641   2.397       .  S
O1638     Zr1657   2.400       .  S
Zr1639     O1658   2.432       .  S
Zr1639     O1666   2.446       .  S
Zr1639     O1654   2.428       .  S
Zr1639     O1645   2.387       .  S
Zr1639     O1646   2.415       .  S
Zr1639     O1647   2.389       .  S
Zr1639     O1648   2.389       .  S
Zr1639     O1664   2.444       .  S
Zr1640     O1653   2.434       .  S
Zr1640     O1646   2.413       .  S
Zr1640     O1647   2.399       .  S
Zr1640     O1659   2.438   1_655  S
Zr1640     O1652   2.435       .  S
Zr1641     O1667   2.470       .  S
Zr1641     O1645   2.388       .  S
Zr1641     O1648   2.393       .  S
Zr1641     O1643   2.437       .  S
Zr1641     O1665   2.437       .  S
Zr1642     O1645   2.374       .  S
Zr1642     O1646   2.388       .  S
Zr1642     O1668   2.435       .  S
Zr1642     O1669   2.436       .  S
Zr1642     O1644   2.438       .  S
O1643      H1680   0.990       .  S
O1644      H1675   0.990       .  S
O1644      H1689   0.990       .  S
O1646      H1672   0.965       .  S
O1647     Zr1657   2.371       .  S
O1648     Zr1657   2.386       .  S
O1648      H1673   0.966       .  S
O1652      H1688   0.990       .  S
O1653      C1655   1.285       .  A
O1654      C1655   1.281       .  A
O1656     Zr1657   2.436       .  S
O1656      H1685   0.990       .  S
Zr1657     O1662   2.411       .  S
Zr1657     O1660   2.438       .  S
Zr1657     O1661   2.438       .  S
O1658      C1663   1.279       .  A
O1659      H1676   0.990       .  S
O1659      H1691   0.990       .  S
O1660      H1677   0.990       .  S
O1661      H1681   0.990       .  S
O1661      H1690   0.990       .  S
O1662      C1663   1.272       .  A
O1664      H1683   0.990       .  S
O1664      H1687   0.991       .  S
O1665      H1679   0.990       .  S
O1665      H1686   0.990       .  S
O1666      C1670   1.289       .  A
O1667      C1670   1.288       .  A
O1668      H1678   0.990       .  S
O1669      H1682   0.991       .  S
C1693      C1694   1.197       .  T
C1695      C1696   1.203       .  T
C1697      C1698   1.200       .  T
C1699      C2037   1.416       .  S
C1699      C1700   1.195       .  T
C1701      C1702   1.202       .  T
C1703      C1704   1.199       .  T
C1705      C1706   1.200       .  T
C1709      C1710   1.200       .  T
C1711      C1712   1.210       .  T
C1713      C1714   1.197       .  T
C1715      C1716   1.195       .  T
C1717      C1718   1.199       .  T
C1719      C1720   1.212       .  T
C1721      C1722   1.198       .  T
C1723      C1724   1.202       .  T
C1725      C1726   1.195       .  T
C1727      C1728   1.199       .  T
C1729      N1730   1.359       .  A
C1729      N1734   1.361       .  A
C1729      C2159   1.457       .  S
C1731      N1732   1.347       .  A
C1731      C2303   1.425   1_455  S
C1733      N1734   1.359       .  A
C1733      C1799   1.446       .  S
C1735      N1736   1.372       .  A
C1735      N1740   1.356       .  A
C1735      C1800   1.480       .  S
N1736      C1737   1.375       .  A
C1737      N1738   1.353       .  A
C1737      C2161   1.473       .  S
N1738      C1739   1.347       .  A
C1739      N1740   1.348       .  A
C1739      C2302   1.421       .  S
C1741      N1746   1.368       .  A
C1741      C1801   1.468       .  S
N1742      C1743   1.350       .  A
C1743      C2300   1.426       .  S
N1744      C1745   1.355       .  A
C1745      N1746   1.362       .  A
C1745      C2160   1.465       .  S
C1747      N1748   1.358       .  A
C1747      N1752   1.353       .  A
C1747      C2304   1.425       .  S
N1748      C1749   1.358       .  A
C1749      N1750   1.353       .  A
C1749      C2299   1.427       .  S
N1750      C1751   1.352       .  A
C1751      N1752   1.351       .  A
C1751      C2301   1.421       .  S
C1753      N1754   1.359       .  A
C1753      N1758   1.376       .  A
C1753      C1903   1.478       .  S
C1755      N1756   1.339       .  A
C1755      C2298   1.422   1_545  S
C1757      N1758   1.373       .  A
C1759      N1760   1.360       .  A
C1759      N1764   1.361       .  A
C1759      C1805   1.467       .  S
N1760      C1761   1.353       .  A
C1761      N1762   1.356       .  A
C1761      C2296   1.448       .  S
N1762      C1763   1.363       .  A
C1763      N1764   1.363       .  A
C1763      C1895   1.466       .  S
C1765      N1766   1.362       .  A
C1765      N1770   1.364       .  A
C1765      C2295   1.449       .  S
N1766      C1767   1.360       .  A
C1767      N1768   1.343       .  A
C1767      C2297   1.422       .  S
N1768      C1769   1.344       .  A
C1769      N1770   1.362       .  A
C1769      C2294   1.425       .  S
C1771      N1776   1.361       .  A
C1771      C1910   1.447       .  S
N1772      C1773   1.341       .  A
C1773      N1774   1.356       .  A
C1773      C2293   1.424       .  S
N1774      C1775   1.362       .  A
C1775      C1813   1.463       .  S
Zr1777     O1780   2.434       .  S
Zr1777     O1787   2.414       .  S
O1778      H1834   0.990       .  S
O1778      H1842   0.990       .  S
O1779      C1799   1.272       .  A
O1780      C1801   1.280       .  A
O1781     Zr1791   2.476       .  S
O1781      C1800   1.290       .  A
O1782     Zr1790   2.426   1_554  S
O1783      C1800   1.285       .  A
O1784     Zr1792   2.414       .  S
O1784      C1799   1.267       .  A
O1785     Zr1790   2.389   1_554  S
O1785     Zr1792   2.379       .  S
O1786      H1821   0.966       .  S
O1787     Zr1807   2.406   1_554  S
O1787      H1824   0.966       .  S
O1788     Zr1791   2.385       .  S
Zr1789     O1804   2.431       .  S
Zr1789     O1796   2.424       .  S
Zr1789     O1814   2.442       .  S
Zr1790     O1803   2.466       .  S
Zr1790     O1796   2.395       .  S
Zr1790     O1802   2.434       .  S
Zr1791     O1817   2.436   1_564  S
Zr1791     O1798   2.404   1_554  S
Zr1791     O1793   2.435   1_554  S
Zr1792     O1796   2.378   1_554  S
Zr1792     O1819   2.439   1_554  S
Zr1792     O1794   2.442       .  S
O1793      H1830   0.990   1_556  S
O1794      H1825   0.989       .  S
O1794      H1839   0.990       .  S
O1796      H1822   0.962       .  S
O1797     Zr1807   2.390       .  S
O1798      H1823   0.966       .  S
O1802      H1838   0.990   1_556  S
O1803      C1805   1.289       .  A
O1804      C1805   1.284       .  A
O1806      H1835   0.990       .  S
Zr1807     O1812   2.398       .  S
Zr1807     O1810   2.436       .  S
O1808      C1813   1.285       .  A
O1809      H1826   0.990       .  S
O1809      H1841   0.990       .  S
O1810      H1827   0.990       .  S
O1811      H1831   0.990       .  S
O1811      H1840   0.990   1_556  S
O1812      C1813   1.269       .  A
O1814      H1833   0.991       .  S
O1814      H1837   0.990       .  S
O1815      H1836   0.990       .  S
O1817      C1820   1.289       .  A
O1819      H1832   0.990       .  S
C1843      N1844   1.358       .  A
C1843      N1848   1.374       .  A
C1843      C1889   1.472       .  S
N1844      C1845   1.351       .  A
C1845      N1846   1.338       .  A
C1845      C2291   1.417       .  S
N1846      C1847   1.348       .  A
C1847      N1848   1.371       .  A
C1847      C1981   1.467       .  S
C1849      N1850   1.345       .  A
C1849      N1854   1.363       .  A
C1849      C1891   1.451       .  S
N1850      C1851   1.337       .  A
C1851      C2290   1.420       .  S
N1852      C1853   1.362       .  A
C1853      C1979   1.467       .  S
C1855      N1856   1.362       .  A
C1855      N1860   1.360       .  A
C1855      C1980   1.469       .  S
N1856      C1857   1.357       .  A
C1857      C2288   1.448       .  S
N1858      C1859   1.360       .  A
C1859      C1890   1.464       .  S
C1861      N1866   1.365       .  A
C1861      C2287   1.447       .  S
C1863      C2292   1.419       .  S
C1865      N1866   1.364       .  A
C1865      C2289   1.424       .  S
Zr1867     O1869   2.475       .  S
Zr1867     O1870   2.442       .  S
Zr1867     O1873   2.443       .  S
Zr1867     O1875   2.391       .  S
Zr1867     O1876   2.385       .  S
Zr1867     O1877   2.424       .  S
Zr1867     O1878   2.399       .  S
Zr1867     O1868   2.445       .  S
O1868      H1924   0.991       .  S
O1868      H1932   0.991       .  S
O1869      C1889   1.290       .  A
O1870      C1891   1.281       .  A
O1871     Zr1881   2.439       .  S
O1871      C1890   1.284       .  A
O1872     Zr1880   2.401       .  S
O1872      C1891   1.281       .  A
O1873      C1890   1.286       .  A
O1874     Zr1882   2.411       .  S
O1874      C1889   1.275       .  A
O1875     Zr1880   2.405       .  S
O1875     Zr1882   2.386       .  S
O1876     Zr1881   2.384       .  S
O1876     Zr1882   2.380       .  S
O1876      H1911   0.966       .  S
O1877     Zr1880   2.401       .  S
O1877     Zr1897   2.388       .  S
O1877      H1914   0.964       .  S
O1878     Zr1881   2.373       .  S
O1878     Zr1897   2.385       .  S
Zr1879     O1898   2.485       .  S
Zr1879     O1906   2.437       .  S
Zr1879     O1894   2.446       .  S
Zr1879     O1885   2.415       .  S
Zr1879     O1886   2.422       .  S
Zr1879     O1887   2.371       .  S
Zr1879     O1888   2.390       .  S
Zr1879     O1904   2.442       .  S
Zr1880     O1893   2.449       .  S
Zr1880     O1886   2.387       .  S
Zr1880     O1887   2.392       .  S
Zr1880     O1899   2.434       .  S
Zr1880     O1892   2.435       .  S
Zr1881     O1907   2.397       .  S
Zr1881     O1885   2.390       .  S
Zr1881     O1888   2.402       .  S
Zr1881     O1883   2.435   1_655  S
Zr1881     O1905   2.438       .  S
Zr1882     O1885   2.393       .  S
Zr1882     O1886   2.376       .  S
Zr1882     O1908   2.436       .  S
Zr1882     O1909   2.437       .  S
Zr1882     O1884   2.437       .  S
O1884      H1915   0.990       .  S
O1884      H1929   0.990       .  S
O1886      H1912   0.963       .  S
O1887     Zr1897   2.390       .  S
O1888     Zr1897   2.373       .  S
O1888      H1913   0.966       .  S
O1892      H1928   0.990       .  S
O1893      C1895   1.286       .  A
O1894      C1895   1.285       .  A
O1896     Zr1897   2.438       .  S
O1896      H1925   0.991       .  S
Zr1897     O1902   2.412       .  S
Zr1897     O1900   2.438       .  S
Zr1897     O1901   2.439       .  S
O1898      C1903   1.291       .  A
O1899      H1916   0.990       .  S
O1899      H1931   0.990       .  S
O1900      H1917   0.990       .  S
O1901      H1921   0.990       .  S
O1901      H1930   0.990       .  S
O1902      C1903   1.276       .  A
O1904      H1923   0.991       .  S
O1904      H1927   0.990       .  S
O1905      H1919   0.989       .  S
O1905      H1926   0.990   1_655  S
O1906      C1910   1.283       .  A
O1907      C1910   1.280       .  A
O1908      H1918   0.990       .  S
O1909      H1922   0.990       .  S
C1933      N1934   1.360       .  A
C1933      N1938   1.356       .  A
C1933      C2083   1.453       .  S
N1934      C1935   1.362       .  A
C1935      N1936   1.353       .  A
C1935      C1993   1.450       .  S
N1936      C1937   1.348       .  A
C1937      N1938   1.351       .  A
C1937      C2285   1.424       .  S
C1939      N1940   1.357       .  A
C1939      N1944   1.368       .  A
C1939      C2000   1.459       .  S
N1940      C1941   1.349       .  A
C1941      N1942   1.346       .  A
C1941      C2283   1.428       .  S
N1942      C1943   1.355       .  A
C1943      N1944   1.361       .  A
C1943      C2075   1.459       .  S
C1945      N1946   1.357   1_565  A
C1945      N1950   1.374       .  A
C1945      C1985   1.481       .  S
C1947      N1948   1.346       .  A
C1947      C2281   1.428       .  S
C1949      N1950   1.377   1_545  A
C1951      N1952   1.356       .  A
C1951      N1956   1.354       .  A
C1951      C2286   1.424       .  S
N1952      C1953   1.356       .  A
C1953      N1954   1.356       .  A
C1953      C2284   1.430       .  S
N1954      C1955   1.356       .  A
C1955      N1956   1.353       .  A
C1955      C2282   1.429       .  S
Zr1957     O1959   2.463       .  S
Zr1957     O1960   2.462       .  S
Zr1957     O1963   2.434       .  S
Zr1957     O1965   2.395       .  S
Zr1957     O1966   2.400       .  S
Zr1957     O1967   2.420       .  S
Zr1957     O1968   2.395       .  S
Zr1957     O1958   2.444       .  S
O1958      H2014   0.991       .  S
O1958      H2022   0.990       .  S
O1959      C1979   1.285       .  A
O1960      C1981   1.285       .  A
O1961     Zr1971   2.472       .  S
O1961      C1980   1.291       .  A
O1962     Zr1970   2.414       .  S
O1962      C1981   1.284       .  A
O1963      C1980   1.285       .  A
O1964     Zr1972   2.412       .  S
O1964      C1979   1.274       .  A
O1965     Zr1970   2.414       .  S
O1965     Zr1972   2.390       .  S
O1966     Zr1971   2.380       .  S
O1966     Zr1972   2.376       .  S
O1966      H2001   0.966       .  S
O1967     Zr1970   2.410       .  S
O1967     Zr1987   2.392       .  S
O1967      H2004   0.964       .  S
O1968     Zr1971   2.378       .  S
O1968     Zr1987   2.362       .  S
Zr1969     O1988   2.457       .  S
Zr1969     O1996   2.410       .  S
Zr1969     O1984   2.445       .  S
Zr1969     O1975   2.415       .  S
Zr1969     O1976   2.410       .  S
Zr1969     O1977   2.367       .  S
Zr1969     O1978   2.393       .  S
Zr1969     O1994   2.442       .  S
Zr1970     O1983   2.477       .  S
Zr1970     O1976   2.393       .  S
Zr1970     O1977   2.390       .  S
Zr1970     O1989   2.437       .  S
Zr1970     O1982   2.434       .  S
Zr1971     O1997   2.444       .  S
Zr1971     O1975   2.395       .  S
Zr1971     O1978   2.387       .  S
Zr1971     O1973   2.436       .  S
Zr1971     O1995   2.437       .  S
Zr1972     O1975   2.394       .  S
Zr1972     O1976   2.380       .  S
Zr1972     O1998   2.437       .  S
Zr1972     O1999   2.436   1_565  S
Zr1972     O1974   2.437   1_565  S
O1973      H2010   0.990       .  S
O1974      H2019   0.990       .  S
O1976      H2002   0.963       .  S
O1977     Zr1987   2.396       .  S
O1978     Zr1987   2.378       .  S
O1978      H2003   0.966       .  S
O1982      H2018   0.990       .  S
O1983      C1985   1.289       .  A
O1984      C1985   1.286       .  A
O1986     Zr1987   2.440       .  S
O1986      H2015   0.990       .  S
Zr1987     O1992   2.389       .  S
Zr1987     O1990   2.437       .  S
Zr1987     O1991   2.441       .  S
O1988      C1993   1.284       .  A
O1989      H2006   0.990       .  S
O1989      H2021   0.990       .  S
O1990      H2007   0.990       .  S
O1991      H2011   0.990       .  S
O1991      H2020   0.990       .  S
O1992      C1993   1.268       .  A
O1994      H2013   0.991       .  S
O1994      H2017   0.990       .  S
O1995      H2009   0.990       .  S
O1995      H2016   0.990       .  S
O1996      C2000   1.278       .  A
O1997      C2000   1.288       .  A
O1998      H2008   0.990   1_565  S
O1999      H2012   0.990   1_545  S
C2023      N2024   1.355       .  A
C2023      N2028   1.360       .  A
C2023      C2069   1.453       .  S
N2024      C2025   1.349       .  A
C2025      N2026   1.347       .  A
C2025      C2280   1.424       .  S
N2026      C2027   1.354       .  A
C2027      N2028   1.362       .  A
C2027      C2239   1.449       .  S
C2029      N2030   1.360   1_655  A
C2029      N2034   1.365       .  A
C2029      C2231   1.459       .  S
N2030      C2031   1.353       .  A
C2031      N2032   1.345       .  A
N2032      C2033   1.352       .  A
C2033      N2034   1.357   1_455  A
C2033      C2070   1.454   1_455  S
C2035      N2036   1.356       .  A
C2035      N2040   1.375       .  A
C2035      C2246   1.479       .  S
N2036      C2037   1.346       .  A
C2037      N2038   1.344       .  A
N2038      C2039   1.352       .  A
C2039      N2040   1.376       .  A
C2039      C2071   1.476       .  S
C2041      N2042   1.355       .  A
C2041      N2046   1.358       .  A
C2041      C2279   1.424       .  S
N2042      C2043   1.352       .  A
C2043      N2044   1.352       .  A
C2043      C2276   1.422       .  S
N2044      C2045   1.351       .  A
C2045      N2046   1.357       .  A
C2045      C2278   1.427       .  S
Zr2047     O2050   2.463       .  S
Zr2047     O2057   2.418       .  S
Zr2047     O2058   2.388       .  S
Zr2047     O2048   2.442       .  S
O2048      H2104   0.990       .  S
O2048      H2112   0.990       .  S
O2049      C2069   1.279       .  A
O2050      C2071   1.286       .  A
O2051     Zr2061   2.458       .  S
O2051      C2070   1.287       .  A
O2052     Zr2060   2.444   1_545  S
O2053      C2070   1.285   1_455  A
O2054     Zr2062   2.400       .  S
O2054      C2069   1.268       .  A
O2055     Zr2060   2.401       .  S
O2056     Zr2061   2.395       .  S
O2057     Zr2077   2.387       .  S
O2057      H2094   0.964       .  S
O2058     Zr2077   2.357       .  S
Zr2059     O2074   2.426   1_545  S
Zr2059     O2066   2.416   1_545  S
Zr2060     O2073   2.466       .  S
Zr2060     O2066   2.402       .  S
Zr2060     O2072   2.434       .  S
Zr2061     O2087   2.456       .  S
Zr2061     O2063   2.435       .  S
Zr2061     O2085   2.438       .  S
Zr2062     O2065   2.387       .  S
Zr2062     O2088   2.436       .  S
Zr2062     O2089   2.438       .  S
Zr2062     O2064   2.438       .  S
O2063      H2100   0.990       .  S
O2064      H2095   0.990       .  S
O2064      H2109   0.990       .  S
O2066      H2092   0.962       .  S
O2067     Zr2077   2.391       .  S
O2068     Zr2077   2.389       .  S
O2068      H2093   0.966       .  S
O2072      H2108   0.990       .  S
O2073      C2075   1.289       .  A
O2074      C2075   1.283       .  A
O2076     Zr2077   2.441       .  S
O2076      H2105   0.990       .  S
Zr2077     O2082   2.382       .  S
Zr2077     O2080   2.438       .  S
Zr2077     O2081   2.439       .  S
O2078      C2083   1.286       .  A
O2079      H2096   0.990       .  S
O2079      H2111   0.990       .  S
O2080      H2097   0.990       .  S
O2081      H2101   0.990       .  S
O2081      H2110   0.990       .  S
O2082      C2083   1.268       .  A
O2084      H2103   0.990   1_545  S
O2084      H2107   0.990   1_655  S
O2085      H2099   0.990       .  S
O2086      C2090   1.284       .  A
O2087      C2090   1.290       .  A
O2088      H2098   0.991       .  S
O2089      H2102   0.990       .  S
C2113      N2114   1.357       .  A
C2113      C2173   1.463       .  S
C2115      N2116   1.346       .  A
C2115      C2273   1.423       .  S
N2116      C2117   1.351       .  A
C2117      N2118   1.364       .  A
C2117      C2225   1.450       .  S
C2119      N2120   1.358       .  A
C2119      N2124   1.369       .  A
C2119      C2226   1.462       .  S
N2120      C2121   1.350       .  A
C2121      N2122   1.348       .  A
C2121      C2272   1.430       .  S
N2122      C2123   1.356       .  A
C2123      N2124   1.362       .  A
C2123      C2165   1.465       .  S
C2125      N2126   1.373       .  A
C2125      N2130   1.358       .  A
N2126      C2127   1.375       .  A
C2127      N2128   1.351       .  A
C2127      C2180   1.471       .  S
N2128      C2129   1.344       .  A
C2129      N2130   1.348       .  A
C2129      C2270   1.424       .  S
C2131      N2136   1.357       .  A
N2132      C2133   1.351       .  A
C2133      C2269   1.424       .  S
N2134      C2135   1.355       .  A
C2135      N2136   1.357       .  A
C2135      C2271   1.430       .  S
Zr2137     O2139   2.453       .  S
Zr2137     O2140   2.447       .  S
Zr2137     O2143   2.420       .  S
Zr2137     O2145   2.387       .  S
Zr2137     O2146   2.401       .  S
Zr2137     O2147   2.418       .  S
Zr2137     O2148   2.390       .  S
Zr2137     O2138   2.444       .  S
O2138      H2194   0.990       .  S
O2138      H2202   0.990       .  S
O2139      C2159   1.280       .  A
O2140      C2161   1.283       .  A
O2141     Zr2151   2.481       .  S
O2141      C2160   1.292       .  A
O2142     Zr2150   2.456       .  S
O2142      C2161   1.290       .  A
O2143      C2160   1.283       .  A
O2144     Zr2152   2.401       .  S
O2144      C2159   1.269       .  A
O2145     Zr2150   2.404       .  S
O2145     Zr2152   2.388       .  S
O2146     Zr2151   2.390       .  S
O2146     Zr2152   2.380       .  S
O2146      H2181   0.966       .  S
O2147     Zr2150   2.400       .  S
O2147     Zr2167   2.394       .  S
O2147      H2184   0.964       .  S
O2148     Zr2151   2.376       .  S
O2148     Zr2167   2.363       .  S
Zr2149     O2168   2.475       .  S
Zr2149     O2176   2.439       .  S
Zr2149     O2164   2.431       .  S
Zr2149     O2155   2.413       .  S
Zr2149     O2156   2.419       .  S
Zr2149     O2157   2.377       .  S
Zr2149     O2158   2.392       .  S
Zr2149     O2174   2.443       .  S
Zr2150     O2163   2.472       .  S
Zr2150     O2156   2.407       .  S
Zr2150     O2157   2.397       .  S
Zr2150     O2169   2.434       .  S
Zr2150     O2162   2.433       .  S
Zr2151     O2177   2.451       .  S
Zr2151     O2155   2.390       .  S
Zr2151     O2158   2.401       .  S
Zr2151     O2153   2.436       .  S
Zr2151     O2175   2.437       .  S
Zr2152     O2155   2.393       .  S
Zr2152     O2156   2.367       .  S
Zr2152     O2178   2.436       .  S
Zr2152     O2179   2.436       .  S
Zr2152     O2154   2.438       .  S
O2153      H2190   0.990       .  S
O2154      H2185   0.990       .  S
O2154      H2199   0.990       .  S
O2156      H2182   0.962       .  S
O2157     Zr2167   2.390       .  S
O2158     Zr2167   2.388       .  S
O2158      H2183   0.966       .  S
O2162      H2198   0.990       .  S
O2163      C2165   1.290       .  A
O2164      C2165   1.284       .  A
O2166     Zr2167   2.441       .  S
O2166      H2195   0.990   1_565  S
Zr2167     O2172   2.393       .  S
Zr2167     O2170   2.436       .  S
Zr2167     O2171   2.439       .  S
O2168      C2173   1.286       .  A
O2169      H2186   0.990       .  S
O2169      H2201   0.990       .  S
O2170      H2187   0.990       .  S
O2171      H2191   0.990       .  S
O2171      H2200   0.990       .  S
O2172      C2173   1.269       .  A
O2174      H2193   0.991       .  S
O2174      H2197   0.990       .  S
O2175      H2189   0.990       .  S
O2175      H2196   0.990       .  S
O2176      C2180   1.282       .  A
O2177      C2180   1.290       .  A
O2178      H2188   0.990       .  S
O2179      H2192   0.990       .  S
Zr2203     O2205   2.453       .  S
Zr2203     O2206   2.455       .  S
Zr2203     O2209   2.424       .  S
Zr2203     O2211   2.378       .  S
Zr2203     O2212   2.392       .  S
Zr2203     O2213   2.410       .  S
Zr2203     O2214   2.412       .  S
Zr2203     O2204   2.443       .  S
O2204      H2260   0.990       .  S
O2204      H2268   0.991       .  S
O2205      C2225   1.285       .  A
O2206      C2227   1.287       .  A
O2207     Zr2217   2.436       .  S
O2207      C2226   1.286       .  A
O2208     Zr2216   2.471       .  S
O2208      C2227   1.288       .  A
O2209      C2226   1.281       .  A
O2210     Zr2218   2.394       .  S
O2210      C2225   1.272       .  A
O2211     Zr2216   2.401       .  S
O2211     Zr2218   2.397       .  S
O2212     Zr2217   2.398       .  S
O2212     Zr2218   2.381       .  S
O2212      H2247   0.966       .  S
O2213     Zr2216   2.397       .  S
O2213     Zr2233   2.379       .  S
O2213      H2250   0.963       .  S
O2214     Zr2217   2.399       .  S
O2214     Zr2233   2.391       .  S
Zr2215     O2234   2.427       .  S
Zr2215     O2242   2.440       .  S
Zr2215     O2230   2.429       .  S
Zr2215     O2221   2.387       .  S
Zr2215     O2222   2.415       .  S
Zr2215     O2223   2.386       .  S
Zr2215     O2224   2.389       .  S
Zr2215     O2240   2.445       .  S
Zr2216     O2229   2.433       .  S
Zr2216     O2222   2.411       .  S
Zr2216     O2223   2.399       .  S
Zr2216     O2235   2.438   1_655  S
Zr2216     O2228   2.435       .  S
Zr2217     O2243   2.467       .  S
Zr2217     O2221   2.388       .  S
Zr2217     O2224   2.391       .  S
Zr2217     O2219   2.435       .  S
Zr2217     O2241   2.441       .  S
Zr2218     O2221   2.369       .  S
Zr2218     O2222   2.393       .  S
Zr2218     O2244   2.435       .  S
Zr2218     O2245   2.435       .  S
Zr2218     O2220   2.438       .  S
O2219      H2256   0.990       .  S
O2220      H2251   0.990       .  S
O2220      H2265   0.990       .  S
O2222      H2248   0.965       .  S
O2223     Zr2233   2.376       .  S
O2224     Zr2233   2.383       .  S
O2224      H2249   0.966       .  S
O2228      H2264   0.990       .  S
O2229      C2231   1.284       .  A
O2230      C2231   1.280       .  A
O2232     Zr2233   2.434       .  S
O2232      H2261   0.990       .  S
Zr2233     O2238   2.410       .  S
Zr2233     O2236   2.434       .  S
Zr2233     O2237   2.437       .  S
O2234      C2239   1.279       .  A
O2235      H2252   0.990       .  S
O2235      H2267   0.990       .  S
O2236      H2253   0.990       .  S
O2237      H2257   0.990       .  S
O2237      H2266   0.990       .  S
O2238      C2239   1.273       .  A
O2240      H2259   0.990       .  S
O2240      H2263   0.991       .  S
O2241      H2255   0.990       .  S
O2241      H2262   0.990       .  S
O2242      C2246   1.288       .  A
O2243      C2246   1.288       .  A
O2244      H2254   0.990       .  S
O2245      H2258   0.990       .  S
C2269      C2270   1.199       .  T
C2271      C2272   1.203       .  T
C2273      C2274   1.199       .  T
C2275      C2276   1.198       .  T
C2277      C2278   1.201       .  T
C2279      C2280   1.199       .  T
C2281      C2282   1.202       .  T
C2285      C2286   1.199       .  T
C2287      C2288   1.213       .  T
C2289      C2290   1.199       .  T
C2291      C2292   1.196       .  T
C2293      C2294   1.201       .  T
C2295      C2296   1.213       .  T
C2297      C2298   1.199       .  T
C2299      C2300   1.200       .  T
C2301      C2302   1.197       .  T
C2303      C2304   1.200       .  T
