geometry optimzed in LAMMPS
_audit_creation_date              2020-12-01 
_audit_creation_method            'lammps2cif' 
_symmetry_space_group_name_H-M    'P1' 
_symmetry_Int_Tables_number       1 
_symmetry_cell_setting            triclinic 
loop_ 
_symmetry_equiv_pos_as_xyz 
  x,y,z 
_cell_length_a                    20.30163915 
_cell_length_b                    20.40774247365771 
_cell_length_c                    21.16390607779297 
_cell_angle_alpha                 90.36070525259552 
_cell_angle_beta                  89.3714448392999 
_cell_angle_gamma                 87.82402396343613 
loop_ 
_atom_site_label 
_atom_site_type_symbol 
_atom_site_fract_x 
_atom_site_fract_y 
_atom_site_fract_z 
_atom_site_charge 
O1          O  0.69240663  0.32591345  0.04866937    -0.71500
O2          O  0.51631489  0.29722169  0.06224372    -0.71700
O3          O  0.59470421  0.26747835  0.13311795    -0.71500
O4          O  0.57384675  0.34540714  0.46842228    -0.71500
O5          O  0.59485267  0.25427156  0.42338291    -0.71500
O6          O  0.62571146  0.17947902  0.08906194    -0.71500
O7          O  0.53475819  0.20220550  0.51624930    -0.71500
O8          O  0.70853600  0.23256763  0.49998481    -0.71700
V9          V  0.59981982  0.30933673  0.05168435     1.35200
V10         V  0.61803627  0.21880165  0.50768528     1.35200
C11         C  0.73194071  0.28221091  0.02585229     0.77800
C12         C  0.50171513  0.25260735  0.52657429     0.77800
C13         C  0.58419205  0.20605614  0.12745523     0.77700
C14         C  0.56489040  0.31113150  0.41820503     0.77700
O15         O  0.25424298  0.27434736  0.00369280    -0.71500
O16         O  0.42506503  0.31476410  0.99658970    -0.71700
O17         O  0.33853013  0.33412084  0.41846528    -0.71500
O18         O  0.36491162  0.25651288  0.08370562    -0.71500
O19         O  0.39626764  0.16916670  0.03701103    -0.71500
O20         O  0.36954771  0.24604023  0.37391557    -0.71500
O21         O  0.45032442  0.22430245  0.44517304    -0.71500
O22         O  0.27718572  0.18036783  0.45828496    -0.71700
V23         V  0.34342363  0.29319152  0.99977070     1.35200
V24         V  0.36817138  0.20442596  0.45494981     1.35200
C25         C  0.23460960  0.22199699  0.97998208     0.77800
C26         C  0.46178085  0.26814049  0.98323157     0.77800
C27         C  0.37986363  0.30750245  0.37948395     0.77700
C28         C  0.39969822  0.20212782  0.08792099     0.77700
C29         C  0.43689234  0.34566350  0.33866701    -0.02200
C30         C  0.44054233  0.17747614  0.15333174    -0.02200
C31         C  0.30328223  0.28475485  0.23254031     0.03400
C32         C  0.33879112  0.23258841  0.20500465    -0.12700
C33         C  0.40787390  0.22976551  0.20059508     0.00900
C34         C  0.43761070  0.28977843  0.22039039    -0.11200
C35         C  0.40710587  0.32948722  0.26931651     0.03400
C36         C  0.33675647  0.33367004  0.26329044    -0.10600
H37         H  0.31084350  0.20068352  0.17554638     0.09000
H38         H  0.48661071  0.30051150  0.20410688     0.06600
H39         H  0.30637577  0.36290938  0.29484547     0.06400
C40         C  0.44219873  0.42604592  0.34795297    -0.02200
C41         C  0.43311759  0.09500905  0.16185475    -0.02200
C42         C  0.30148959  0.03695836  0.28042196     0.03400
C43         C  0.33960737  0.08203563  0.24779501    -0.12700
C44         C  0.40519731  0.06465459  0.22567557     0.00900
C45         C  0.42158103  0.99650564  0.23920980    -0.11200
C46         C  0.40028726  0.46683610  0.29557161     0.03400
C47         C  0.33279906  0.48184241  0.30607240    -0.10600
H48         H  0.31090227  0.11920797  0.22620952     0.09000
H49         H  0.45282985  0.96777351  0.20681511     0.06600
H50         H  0.30427582  0.45422770  0.33946832     0.06400
O51         O  0.69568116  0.07092286  0.46272984    -0.71500
O52         O  0.52026833  0.04781656  0.44273706    -0.71700
O53         O  0.57604402  0.09493238  0.03871260    -0.71500
O54         O  0.60388888  0.01435585  0.37528020    -0.71500
O55         O  0.62975988  0.42553555  0.41768666    -0.71500
O56         O  0.58710860  0.50174220  0.08162836    -0.71500
O57         O  0.53335961  0.45187292  0.98616474    -0.71500
O58         O  0.70725259  0.47757901  0.01098509    -0.71700
V59         V  0.60374626  0.05693273  0.45616884     1.35200
V60         V  0.61658204  0.46579384  0.99891930     1.35200
C61         C  0.73289157  0.02698133  0.98676126     0.77800
C62         C  0.50228403  0.00303893  0.97639152     0.77800
C63         C  0.56166917  0.06055851  0.08724287     0.77700
C64         C  0.59074038  0.45325988  0.37911198     0.77700
O65         O  0.25384650  0.02860661  0.49356479    -0.71500
O66         O  0.42541304  0.06523381  0.50579877    -0.71700
O67         O  0.37031325  0.00862201  0.41769081    -0.71500
O68         O  0.33477646  0.08803007  0.08159198    -0.71500
O69         O  0.36066932  0.49913364  0.12453453    -0.71500
O70         O  0.39434544  0.41911857  0.46319067    -0.71500
O71         O  0.44651802  0.47457431  0.05629131    -0.71500
O72         O  0.27361885  0.43427885  0.03796288    -0.71700
V73         V  0.34357673  0.04586088  0.50029607     1.35200
V74         V  0.36418900  0.45660399  0.04430752     1.35200
C75         C  0.23270262  0.97610340  0.01555849     0.77800
C76         C  0.46071300  0.01845001  0.01935136     0.77800
C77         C  0.40190620  0.45242363  0.41330914     0.77700
C78         C  0.37380526  0.06021953  0.12057226     0.77700
C79         C  0.53034754  0.41768627  0.34012938    -0.02200
C80         C  0.52150899  0.08673602  0.15369510    -0.02200
C81         C  0.66022134  0.97126086  0.21989991     0.03400
C82         C  0.62068616  0.42698865  0.25164629    -0.12700
C83         C  0.55677683  0.44683035  0.27549301     0.00900
C84         C  0.54179044  0.01542021  0.26185974    -0.11200
C85         C  0.56322653  0.04420697  0.20505449     0.03400
C86         C  0.63040674  0.02708984  0.19373730    -0.10600
H87         H  0.64764508  0.38760497  0.27131452     0.09000
H88         H  0.51070048  0.04473853  0.29393714     0.06600
H89         H  0.65972259  0.05449144  0.16076489     0.06400
C90         C  0.52340534  0.33528275  0.35169813    -0.02200
C91         C  0.52654542  0.16697720  0.16629719    -0.02200
C92         C  0.65929746  0.22470060  0.27177029     0.03400
C93         C  0.62472243  0.17525023  0.24322049    -0.12700
C94         C  0.55486916  0.18118096  0.23659243     0.00900
C95         C  0.52502315  0.22221363  0.28508495    -0.11200
C96         C  0.55584821  0.28167152  0.30500285     0.03400
C97         C  0.62515395  0.27736453  0.30045142    -0.10600
H98         H  0.65422756  0.14406850  0.21260777     0.09000
H99         H  0.47602940  0.21214105  0.30183040     0.06600
H100        H  0.65412292  0.30965004  0.32873459     0.06400
O101        O  0.21044669  0.22583093  0.25963918    -0.71500
O102        O  0.03892878  0.18904435  0.24756472    -0.71700
O103        O  0.12947727  0.16629382  0.17168934    -0.71500
O104        O  0.09404150  0.24573837  0.33559117    -0.71500
O105        O  0.06974251  0.33516832  0.29007051    -0.71500
O106        O  0.10355988  0.25517540  0.12873614    -0.71500
O107        O  0.01771816  0.27962639  0.19695122    -0.71500
O108        O  0.19055785  0.32017876  0.21532976    -0.71700
V109        V  0.12073618  0.20849776  0.25298282     1.35200
V110        V  0.10000216  0.29772515  0.20896229     1.35200
C111        C  0.23153701  0.27834025  0.23766731     0.77800
C112        C  0.00355875  0.23579164  0.23391044     0.77800
C113        C  0.09044094  0.19408135  0.13269799     0.77700
C114        C  0.06230271  0.30186376  0.33996777     0.77700
O115        O  0.76862162  0.18309890  0.29046454    -0.71500
O116        O  0.94400242  0.20641625  0.31052117    -0.71700
O117        O  0.86038160  0.23979518  0.37794464    -0.71500
O118        O  0.88836659  0.15926066  0.21452956    -0.71500
O119        O  0.87703076  0.25241547  0.17156714    -0.71500
O120        O  0.83448697  0.32862356  0.33552121    -0.71500
O121        O  0.93081752  0.30230438  0.26697484    -0.71500
O122        O  0.75693187  0.27649747  0.24230653    -0.71700
V123        V  0.86055008  0.19720618  0.29705475     1.35200
V124        V  0.84760545  0.28833999  0.25429460     1.35200
C125        C  0.73135036  0.22703106  0.26652140     0.77800
C126        C  0.96194813  0.25120991  0.27682336     0.77800
C127        C  0.87351413  0.30091179  0.37410189     0.77700
C128        C  0.90259676  0.19364056  0.16597480     0.77700
C129        C  0.93388015  0.33651287  0.41312897    -0.00600
C130        C  0.94274294  0.16747847  0.09953912    -0.02200
C131        C  0.80398133  0.28280607  0.03330836     0.03400
C132        C  0.83381782  0.22697743  0.05944216    -0.12700
C133        C  0.90101471  0.20993586  0.04815464     0.00900
C134        C  0.92247039  0.23875892  0.99137774    -0.11200
C135        C  0.90742399  0.30733490  0.47774706     0.03400
C136        C  0.84347359  0.32710062  0.50155943    -0.10600
H137        H  0.80452506  0.19957342  0.09242976     0.09000
H138        H  0.95359586  0.20947091  0.95930604     0.06600
H139        H  0.81646665  0.36644866  0.48188332     0.06400
C140        C  0.94082887  0.41891812  0.40158207    -0.02200
C141        C  0.93768286  0.08723576  0.08699898    -0.02200
C142        C  0.80493451  0.02930937  0.98159882     0.03400
C143        C  0.83946298  0.07880126  0.01013013    -0.12700
C144        C  0.90932372  0.07295970  0.01672371     0.00900
C145        C  0.93917805  0.03196602  0.96820539    -0.11200
C146        C  0.90838791  0.47247522  0.44830546     0.03400
C147        C  0.83909314  0.47669856  0.45289252    -0.10600
H148        H  0.80993035  0.10996410  0.04073574     0.09000
H149        H  0.98814945  0.04208854  0.95142777     0.06600
H150        H  0.81014704  0.44443520  0.42456446     0.06400
O151        O  0.21003871  0.47991190  0.24955217    -0.71500
O152        O  0.03920456  0.43953612  0.25656736    -0.71700
O153        O  0.09936126  0.49777354  0.16952122    -0.71500
O154        O  0.12569177  0.42010647  0.33473890    -0.71500
O155        O  0.09472617  0.00818964  0.37928374    -0.71500
O156        O  0.06798475  0.08510864  0.21622509    -0.71500
O157        O  0.01398422  0.02995533  0.30805543    -0.71500
O158        O  0.18708451  0.07390424  0.29491354    -0.71700
V159        V  0.12084629  0.46107322  0.25343774     1.35200
V160        V  0.09611535  0.04982856  0.29826080     1.35200
C161        C  0.22967471  0.03229012  0.27324964     0.77800
C162        C  0.00250281  0.98612234  0.26999301     0.77800
C163        C  0.06455228  0.05214030  0.16532156     0.77700
C164        C  0.08436783  0.44673143  0.37372990     0.77700
O165        O  0.77181604  0.42818663  0.20466899    -0.71500
O166        O  0.94785492  0.45707548  0.19108368    -0.71700
O167        O  0.89044524  0.40879633  0.28487360    -0.71500
O168        O  0.86947479  0.48676244  0.12023533    -0.71500
O169        O  0.83851237  0.07475431  0.16430909    -0.71500
O170        O  0.86924896  0.99986917  0.32996147    -0.71500
O171        O  0.92935500  0.05200147  0.23721971    -0.71500
O172        O  0.75559743  0.02156253  0.25328575    -0.71700
V173        V  0.86438251  0.44486696  0.20164859     1.35200
V174        V  0.84609651  0.03537356  0.24567274     1.35200
C175        C  0.73224908  0.97188643  0.22743632     0.77800
C176        C  0.96246466  0.00167102  0.22675565     0.77800
C177        C  0.89932534  0.44306252  0.33510166     0.77700
C178        C  0.88003291  0.04817656  0.12590487     0.77700
C179        C  0.02203081  0.32820510  0.40532729    -0.02200
C180        C  0.03113541  0.15925245  0.09140180    -0.02200
C181        C  0.16278098  0.21736601  0.97285083     0.03400
C182        C  0.12467169  0.17227958  0.00547287    -0.12700
C183        C  0.05906779  0.18962497  0.02758895     0.00900
C184        C  0.04265856  0.25776933  0.01406605    -0.11200
C185        C  0.06395196  0.28745204  0.45771707     0.03400
C186        C  0.13144540  0.27247863  0.44722349    -0.10600
H187        H  0.15340888  0.13512870  0.02705743     0.09000
H188        H  0.01137647  0.28647759  0.04645219     0.06600
H189        H  0.15995777  0.30011247  0.41383604     0.06400
C190        C  0.02734647  0.40858400  0.41459163    -0.02200
C191        C  0.02369649  0.07678488  0.09993153    -0.02200
C192        C  0.16096610  0.96967662  0.02062893     0.03400
C193        C  0.12543288  0.02179107  0.04820062    -0.12700
C194        C  0.05636205  0.02453884  0.05264536     0.00900
C195        C  0.02666799  0.96449535  0.03286961    -0.11200
C196        C  0.05716313  0.42481344  0.48392663     0.03400
C197        C  0.12751836  0.42070870  0.48992025    -0.10600
H198        H  0.15336100  0.05367929  0.07769531     0.09000
H199        H  0.97769070  0.95371836  0.04918846     0.06600
H200        H  0.15791587  0.39146346  0.45838124     0.06400
O201        O  0.69240764  0.32591145  0.54866716    -0.71500
O202        O  0.51631502  0.29723151  0.56224334    -0.71700
O203        O  0.59470663  0.26747645  0.63311325    -0.71500
O204        O  0.57385045  0.34539825  0.96842143    -0.71500
O205        O  0.59486035  0.25426334  0.92338369    -0.71500
O206        O  0.62570834  0.17947737  0.58905234    -0.71500
O207        O  0.53476285  0.20219644  0.01625119    -0.71500
O208        O  0.70853912  0.23256707  0.99999266    -0.71700
V209        V  0.59982032  0.30934046  0.55168276     1.35200
V210        V  0.61804083  0.21879703  0.00769064     1.35200
C211        C  0.73193973  0.28220776  0.52584936     0.77800
C212        C  0.50171900  0.25259805  0.02657224     0.77800
C213        C  0.58419163  0.20605482  0.62744805     0.77700
C214        C  0.56489787  0.31112343  0.91820399     0.77700
O215        O  0.25423258  0.27433673  0.50368478    -0.71500
O216        O  0.42504944  0.31476463  0.49660498    -0.71700
O217        O  0.33853438  0.33411791  0.91846001    -0.71500
O218        O  0.36489628  0.25649971  0.58370427    -0.71500
O219        O  0.39626882  0.16916122  0.53700424    -0.71500
O220        O  0.36955320  0.24603588  0.87391534    -0.71500
O221        O  0.45032967  0.22429248  0.94517024    -0.71500
O222        O  0.27718627  0.18037649  0.95829307    -0.71700
V223        V  0.34341152  0.29318590  0.49977287     1.35200
V224        V  0.36817399  0.20442636  0.95495310     1.35200
C225        C  0.23460485  0.22198558  0.47997193     0.77800
C226        C  0.46177146  0.26814862  0.48323847     0.77800
C227        C  0.37986860  0.30749853  0.87948064     0.77700
C228        C  0.39969366  0.20212067  0.58791670     0.77700
C229        C  0.43689924  0.34566014  0.83866616    -0.02200
C230        C  0.44054239  0.17747430  0.65332805    -0.02200
C231        C  0.30328805  0.28476339  0.73253402     0.03400
C232        C  0.33879473  0.23259219  0.70500309    -0.12700
C233        C  0.40787718  0.22976640  0.70059127     0.00900
C234        C  0.43761718  0.28977734  0.72038753    -0.11200
C235        C  0.40711392  0.32948717  0.76931421     0.03400
C236        C  0.33676487  0.33367531  0.76328642    -0.10600
H237        H  0.31084518  0.20068525  0.67554876     0.09000
H238        H  0.48661707  0.30050879  0.70410357     0.06600
H239        H  0.30638569  0.36291536  0.79484182     0.06400
C240        C  0.44220657  0.42604308  0.84795438    -0.02200
C241        C  0.43311795  0.09500812  0.66185490    -0.02200
C242        C  0.30148399  0.03695297  0.78041561     0.03400
C243        C  0.33960255  0.08203434  0.74779325    -0.12700
C244        C  0.40519487  0.06465586  0.72567575     0.00900
C245        C  0.42157897  0.99650741  0.73920894    -0.11200
C246        C  0.40029378  0.46683534  0.79557398     0.03400
C247        C  0.33280592  0.48184474  0.80607857    -0.10600
H248        H  0.31089807  0.11921026  0.72621114     0.09000
H249        H  0.45282783  0.96777534  0.70681348     0.06600
H250        H  0.30428355  0.45423180  0.83947620     0.06400
O251        O  0.69568893  0.07090787  0.96273073    -0.71500
O252        O  0.52027305  0.04784942  0.94273497    -0.71700
O253        O  0.57602695  0.09493287  0.53870616    -0.71500
O254        O  0.60388281  0.01436481  0.87527719    -0.71500
O255        O  0.62976740  0.42553030  0.91769398    -0.71500
O256        O  0.58708491  0.50172949  0.58162525    -0.71500
O257        O  0.53333943  0.45188684  0.48614285    -0.71500
O258        O  0.70723814  0.47756334  0.51099274    -0.71700
V259        V  0.60375273  0.05693841  0.95616934     1.35200
V260        V  0.61656515  0.46579043  0.49891362     1.35200
C261        C  0.73289308  0.02699868  0.48675406     0.77800
C262        C  0.50229090  0.00300948  0.47640572     0.77800
C263        C  0.56167244  0.06056102  0.58724296     0.77700
C264        C  0.59074855  0.45325366  0.87911716     0.77700
O265        O  0.25383467  0.02859396  0.99357714    -0.71500
O266        O  0.42539193  0.06524901  0.00577043    -0.71700
O267        O  0.37028770  0.00861712  0.91768519    -0.71500
O268        O  0.33477859  0.08802639  0.58159447    -0.71500
O269        O  0.36066771  0.49913315  0.62453439    -0.71500
O270        O  0.39433795  0.41911748  0.96318873    -0.71500
O271        O  0.44651559  0.47459604  0.55628344    -0.71500
O272        O  0.27362162  0.43426038  0.53796718    -0.71700
V273        V  0.34356092  0.04586096  0.00029140     1.35200
V274        V  0.36419022  0.45660394  0.54430752     1.35200
C275        C  0.23270395  0.97612217  0.51555176     0.77800
C276        C  0.46072200  0.01842105  0.51936780     0.77800
C277        C  0.40191635  0.45242451  0.91331028     0.77700
C278        C  0.37380655  0.06021598  0.62057443     0.77700
C279        C  0.53035534  0.41768200  0.84013219    -0.02200
C280        C  0.52150970  0.08673615  0.65369407    -0.02200
C281        C  0.66021898  0.97126201  0.71990094     0.03400
C282        C  0.62069279  0.42698952  0.75164935    -0.12700
C283        C  0.55678327  0.44682907  0.77549623     0.00900
C284        C  0.54178781  0.01542261  0.76185764    -0.11200
C285        C  0.56322631  0.04420961  0.70505467     0.03400
C286        C  0.63040722  0.02709422  0.69374192    -0.10600
H287        H  0.64765456  0.38761088  0.77132053     0.09000
H288        H  0.51069823  0.04474160  0.79393476     0.06600
H289        H  0.65972464  0.05449526  0.66077087     0.06400
C290        C  0.52341195  0.33527776  0.85169815    -0.02200
C291        C  0.52654658  0.16697678  0.66629275    -0.02200
C292        C  0.65930329  0.22470966  0.77175781     0.03400
C293        C  0.62472985  0.17525692  0.74320968    -0.12700
C294        C  0.55487520  0.18118282  0.73658604     0.00900
C295        C  0.52502961  0.22221160  0.78508150    -0.11200
C296        C  0.55585370  0.28166957  0.80500098     0.03400
C297        C  0.62515866  0.27736698  0.80044688    -0.10600
H298        H  0.65423515  0.14407791  0.71259570     0.09000
H299        H  0.47603553  0.21213799  0.80182631     0.06600
H300        H  0.65412685  0.30964996  0.82873361     0.06400
O301        O  0.21045882  0.22583615  0.75963565    -0.71500
O302        O  0.03894349  0.18903984  0.74759885    -0.71700
O303        O  0.12947560  0.16628895  0.67170293    -0.71500
O304        O  0.09406603  0.24575021  0.83560396    -0.71500
O305        O  0.06973916  0.33516864  0.79007381    -0.71500
O306        O  0.10356438  0.25517055  0.62874513    -0.71500
O307        O  0.01772301  0.27960779  0.69696414    -0.71500
O308        O  0.19055836  0.32018596  0.71533418    -0.71700
V309        V  0.12074922  0.20849956  0.75299606     1.35200
V310        V  0.10000397  0.29772151  0.70896988     1.35200
C311        C  0.23154310  0.27834806  0.73766527     0.77800
C312        C  0.00356791  0.23577930  0.73393267     0.77800
C313        C  0.09044218  0.19407775  0.63270888     0.77700
C314        C  0.06231282  0.30186909  0.83997555     0.77700
O315        O  0.76862349  0.18310951  0.79045905    -0.71500
O316        O  0.94400113  0.20641472  0.81053763    -0.71700
O317        O  0.86037576  0.23980488  0.87794881    -0.71500
O318        O  0.88837082  0.15926672  0.71453538    -0.71500
O319        O  0.87704527  0.25242301  0.67157322    -0.71500
O320        O  0.83448924  0.32863299  0.83552300    -0.71500
O321        O  0.93082960  0.30230302  0.76698821    -0.71500
O322        O  0.75694115  0.27650916  0.74230167    -0.71700
V323        V  0.86055008  0.19721288  0.79705952     1.35200
V324        V  0.84761552  0.28834742  0.75429846     1.35200
C325        C  0.73135611  0.22704188  0.76651248     0.77800
C326        C  0.96195475  0.25120501  0.77684121     0.77800
C327        C  0.87351274  0.30092088  0.87410594     0.77700
C328        C  0.90260517  0.19364617  0.66598147     0.77700
C329        C  0.93388298  0.33652027  0.91313123    -0.00600
C330        C  0.94274596  0.16748137  0.59954590    -0.02200
C331        C  0.80397998  0.28280205  0.53330765     0.03400
C332        C  0.83381919  0.22697993  0.55945095    -0.12700
C333        C  0.90101668  0.20993839  0.54816237     0.00900
C334        C  0.92247108  0.23875559  0.49138194    -0.11200
C335        C  0.90742602  0.30734068  0.97774889     0.03400
C336        C  0.84347748  0.32710880  0.00156642    -0.10600
H337        H  0.80452770  0.19957870  0.59244201     0.09000
H338        H  0.95359662  0.20946533  0.45931249     0.06600
H339        H  0.81647620  0.36646894  0.98190381     0.06400
C340        C  0.94083376  0.41892529  0.90158134    -0.02200
C341        C  0.93768278  0.08723962  0.58700495    -0.02200
C342        C  0.80493563  0.02932930  0.48158655     0.03400
C343        C  0.83946522  0.07881123  0.51013225    -0.12700
C344        C  0.90932528  0.07296501  0.51672849     0.00900
C345        C  0.93918054  0.03197419  0.46820785    -0.11200
C346        C  0.90839213  0.47248553  0.94830273     0.03400
C347        C  0.83909679  0.47671395  0.95288489    -0.10600
H348        H  0.80993242  0.10996909  0.54074238     0.09000
H349        H  0.98815281  0.04209675  0.45143235     0.06600
H350        H  0.81015082  0.44444518  0.92456252     0.06400
O351        O  0.21004676  0.47991339  0.74954714    -0.71500
O352        O  0.03921254  0.43953664  0.75655646    -0.71700
O353        O  0.09936773  0.49777519  0.66951379    -0.71500
O354        O  0.12569556  0.42010866  0.83473167    -0.71500
O355        O  0.09472531  0.00818241  0.87929141    -0.71500
O356        O  0.06797654  0.08510560  0.71623329    -0.71500
O357        O  0.01397898  0.02995273  0.80806912    -0.71500
O358        O  0.18707977  0.07389852  0.79491590    -0.71700
V359        V  0.12085370  0.46107472  0.75342996     1.35200
V360        V  0.09611047  0.04982390  0.79826871     1.35200
C361        C  0.22966833  0.03228495  0.77324815     0.77800
C362        C  0.00249560  0.98612240  0.77000495     0.77800
C363        C  0.06454581  0.05213862  0.66532874     0.77700
C364        C  0.08437149  0.44673554  0.87372210     0.77700
O365        O  0.77181916  0.42818673  0.70466951    -0.71500
O366        O  0.94785774  0.45707287  0.69107769    -0.71700
O367        O  0.89045272  0.40879823  0.78487174    -0.71500
O368        O  0.86947500  0.48675934  0.62023244    -0.71500
O369        O  0.83851269  0.07476069  0.66431679    -0.71500
O370        O  0.86924188  0.99986697  0.82996853    -0.71500
O371        O  0.92935053  0.05200581  0.73723160    -0.71500
O372        O  0.75559329  0.02156373  0.75328889    -0.71700
V373        V  0.86438563  0.44486575  0.70164635     1.35200
V374        V  0.84609219  0.03537622  0.74567998     1.35200
C375        C  0.73224619  0.97188726  0.72743892     0.77800
C376        C  0.96245987  0.00167557  0.72676645     0.77800
C377        C  0.89933279  0.44306670  0.83509878     0.77700
C378        C  0.88003177  0.04818243  0.62591091     0.77700
C379        C  0.02203537  0.32821224  0.90533129    -0.02200
C380        C  0.03113711  0.15925298  0.59140978    -0.02200
C381        C  0.16277739  0.21734985  0.47283952     0.03400
C382        C  0.12467252  0.17227514  0.50548032    -0.12700
C383        C  0.05906985  0.18962346  0.52759586     0.00900
C384        C  0.04266143  0.25776666  0.51406634    -0.11200
C385        C  0.06395479  0.28746462  0.95772519     0.03400
C386        C  0.13145077  0.27249903  0.94724069    -0.10600
H387        H  0.15341541  0.13513864  0.52708085     0.09000
H388        H  0.01137980  0.28647818  0.54644957     0.06600
H389        H  0.15996428  0.30013260  0.91385489     0.06400
C390        C  0.02735170  0.40859142  0.91458949    -0.02200
C391        C  0.02369478  0.07678660  0.59993856    -0.02200
C392        C  0.16096795  0.96969899  0.52062060     0.03400
C393        C  0.12543353  0.02180274  0.54820642    -0.12700
C394        C  0.05636272  0.02454531  0.55265101     0.00900
C395        C  0.02667096  0.96450225  0.53287010    -0.11200
C396        C  0.05717178  0.42482677  0.98392178     0.03400
C397        C  0.12752753  0.42073058  0.98990999    -0.10600
H398        H  0.15336083  0.05368462  0.57770878     0.09000
H399        H  0.97769372  0.95372275  0.54918643     0.06600
H400        H  0.15792638  0.39149108  0.95836844     0.06400
O401        O  0.69240686  0.82590149  0.04866055    -0.71500
O402        O  0.51631388  0.79724941  0.06225654    -0.71700
O403        O  0.59470528  0.76747595  0.13311687    -0.71500
O404        O  0.57384198  0.84539356  0.46842122    -0.71500
O405        O  0.59484595  0.75425739  0.42338388    -0.71500
O406        O  0.62569761  0.67947498  0.08905502    -0.71500
O407        O  0.53474655  0.70220106  0.51625423    -0.71500
O408        O  0.70852669  0.73255553  0.49998831    -0.71700
V409        V  0.59981968  0.80934129  0.05168567     1.35200
V410        V  0.61802678  0.71879199  0.50768992     1.35200
C411        C  0.73193286  0.78219508  0.02584034     0.77800
C412        C  0.50170625  0.75260465  0.52658007     0.77800
C413        C  0.58418459  0.70605498  0.12745168     0.77700
C414        C  0.56488622  0.81111845  0.41820523     0.77700
O415        O  0.25421327  0.77433333  0.00367915    -0.71500
O416        O  0.42502237  0.81477617  0.99664495    -0.71700
O417        O  0.33852785  0.83412606  0.41847040    -0.71500
O418        O  0.36486372  0.75648993  0.08371545    -0.71500
O419        O  0.39626546  0.66916475  0.03700728    -0.71500
O420        O  0.36953953  0.74604360  0.37392130    -0.71500
O421        O  0.45031401  0.72430569  0.44517877    -0.71500
O422        O  0.27717569  0.68037082  0.45829391    -0.71700
V423        V  0.34338946  0.79318881  0.99978704     1.35200
V424        V  0.36816141  0.70442942  0.45495699     1.35200
C425        C  0.23459362  0.72197866  0.97996791     0.77800
C426        C  0.46175325  0.76817175  0.98326344     0.77800
C427        C  0.37985974  0.80750553  0.37948813     0.77700
C428        C  0.39967769  0.70211960  0.08792321     0.77700
C429        C  0.43689346  0.84566304  0.33867011    -0.02200
C430        C  0.44053188  0.67747527  0.15333228    -0.02200
C431        C  0.30328092  0.78476399  0.23254262     0.03400
C432        C  0.33878748  0.73259080  0.20501518    -0.12700
C433        C  0.40786917  0.72976680  0.20059789     0.00900
C434        C  0.43760907  0.78977867  0.22039196    -0.11200
C435        C  0.40710689  0.82948968  0.26931867     0.03400
C436        C  0.33675777  0.83367842  0.26329155    -0.10600
H437        H  0.31083698  0.70068504  0.17556117     0.09000
H438        H  0.48660855  0.80051028  0.20410605     0.06600
H439        H  0.30637890  0.86292220  0.29484471     0.06400
C440        C  0.44220991  0.92604496  0.34795549    -0.02200
C441        C  0.43310918  0.59500886  0.16185656    -0.02200
C442        C  0.30147214  0.53694768  0.28041260     0.03400
C443        C  0.33958986  0.58202971  0.24779028    -0.12700
C444        C  0.40518458  0.56465479  0.22567676     0.00900
C445        C  0.42157032  0.49650679  0.23921075    -0.11200
C446        C  0.40030020  0.96683858  0.29557461     0.03400
C447        C  0.33281437  0.98185178  0.30608143    -0.10600
H448        H  0.31088385  0.61920049  0.22620402     0.09000
H449        H  0.45281793  0.46777514  0.20681490     0.06600
H450        H  0.30429154  0.95423893  0.33947883     0.06400
O451        O  0.69567402  0.57091553  0.46272699    -0.71500
O452        O  0.52025773  0.54784633  0.44272795    -0.71700
O453        O  0.57600943  0.59493955  0.03869901    -0.71500
O454        O  0.60387323  0.51436947  0.37527120    -0.71500
O455        O  0.62976932  0.92552214  0.41770017    -0.71500
O456        O  0.58709707  0.00172714  0.08163090    -0.71500
O457        O  0.53334846  0.95188949  0.98615101    -0.71500
O458        O  0.70725015  0.97755579  0.01099729    -0.71700
V459        V  0.60373744  0.55694173  0.45616382     1.35200
V460        V  0.61657545  0.96578683  0.99891962     1.35200
C461        C  0.73288348  0.52700830  0.98674854     0.77800
C462        C  0.50228224  0.50301082  0.97639677     0.77800
C463        C  0.56166044  0.56056671  0.08723744     0.77700
C464        C  0.59075053  0.95324786  0.37912411     0.77700
O465        O  0.25382277  0.52858724  0.49358198    -0.71500
O466        O  0.42538062  0.56524350  0.50577153    -0.71700
O467        O  0.37027642  0.50861020  0.41768719    -0.71500
O468        O  0.33477314  0.58802559  0.08159354    -0.71500
O469        O  0.36067089  0.99913782  0.12453256    -0.71500
O470        O  0.39435055  0.91911978  0.46318956    -0.71500
O471        O  0.44652473  0.97460541  0.05628894    -0.71500
O472        O  0.27363411  0.93426372  0.03795545    -0.71700
V473        V  0.34354952  0.54585438  0.50029381     1.35200
V474        V  0.36420137  0.95661032  0.04430479     1.35200
C475        C  0.23269609  0.47612077  0.01555858     0.77800
C476        C  0.46071413  0.51842149  0.01936064     0.77800
C477        C  0.40192528  0.95242723  0.41331141     0.77700
C478        C  0.37380201  0.56021563  0.12057331     0.77700
C479        C  0.53035734  0.91767974  0.34013538    -0.02200
C480        C  0.52150016  0.58673853  0.15369224    -0.02200
C481        C  0.66020655  0.47125495  0.21988731     0.03400
C482        C  0.62070504  0.92699343  0.25166156    -0.12700
C483        C  0.55679047  0.94682803  0.27550106     0.00900
C484        C  0.54178028  0.51542333  0.26185341    -0.11200
C485        C  0.56321739  0.54420960  0.20504985     0.03400
C486        C  0.63039700  0.52709184  0.19373427    -0.10600
H487        H  0.64767010  0.88761993  0.27133884     0.09000
H488        H  0.51069211  0.54474285  0.29393105     0.06600
H489        H  0.65971501  0.55449585  0.16076553     0.06400
C490        C  0.52340516  0.83527657  0.35170048    -0.02200
C491        C  0.52653716  0.66697850  0.16629512    -0.02200
C492        C  0.65929346  0.72471758  0.27175290     0.03400
C493        C  0.62472118  0.67525880  0.24321215    -0.12700
C494        C  0.55486624  0.68118252  0.23658899     0.00900
C495        C  0.52502114  0.72221153  0.28508451    -0.11200
C496        C  0.55584455  0.78167057  0.30500208     0.03400
C497        C  0.62514840  0.77737159  0.30044532    -0.10600
H498        H  0.65422660  0.64407534  0.21260153     0.09000
H499        H  0.47602791  0.71213744  0.30183086     0.06600
H500        H  0.65411581  0.80965048  0.32873687     0.06400
O501        O  0.21045325  0.72583371  0.25963777    -0.71500
O502        O  0.03893985  0.68903580  0.24760663    -0.71700
O503        O  0.12946958  0.66628239  0.17170653    -0.71500
O504        O  0.09406289  0.74574955  0.33560548    -0.71500
O505        O  0.06972563  0.83516448  0.29007281    -0.71500
O506        O  0.10356430  0.75516393  0.12874653    -0.71500
O507        O  0.01771876  0.77959676  0.19696055    -0.71500
O508        O  0.19055047  0.82018534  0.21534064    -0.71700
V509        V  0.12074466  0.70849600  0.25299940     1.35200
V510        V  0.09999746  0.79771618  0.20897090     1.35200
C511        C  0.23153603  0.77834789  0.23767154     0.77800
C512        C  0.00356272  0.73577102  0.23393175     0.77800
C513        C  0.09043885  0.69407182  0.13271027     0.77700
C514        C  0.06230552  0.80186625  0.33997577     0.77700
O515        O  0.76861108  0.68311939  0.29045516    -0.71500
O516        O  0.94398828  0.70641146  0.31053147    -0.71700
O517        O  0.86036918  0.73981157  0.37794277    -0.71500
O518        O  0.88835430  0.65926913  0.21453007    -0.71500
O519        O  0.87703692  0.75242564  0.17156722    -0.71500
O520        O  0.83448873  0.82864109  0.33551637    -0.71500
O521        O  0.93082469  0.80229988  0.26697965    -0.71500
O522        O  0.75693227  0.77651942  0.24229785    -0.71700
V523        V  0.86053738  0.69721752  0.29705423     1.35200
V524        V  0.84760909  0.78835218  0.25429226     1.35200
C525        C  0.73134563  0.72705204  0.26650797     0.77800
C526        C  0.96194648  0.75120002  0.27683581     0.77800
C527        C  0.87351089  0.80092666  0.37409946     0.77700
C528        C  0.90259480  0.69364785  0.16597740     0.77700
C529        C  0.93388111  0.83652247  0.41312887    -0.00600
C530        C  0.94273881  0.66748056  0.09954438    -0.02200
C531        C  0.80397276  0.78279029  0.03329351     0.03400
C532        C  0.83381410  0.72697360  0.05944244    -0.12700
C533        C  0.90101257  0.70993606  0.04815749     0.00900
C534        C  0.92246864  0.73875470  0.99137751    -0.11200
C535        C  0.90741944  0.80734062  0.47774447     0.03400
C536        C  0.84346651  0.82710386  0.50155603    -0.10600
H537        H  0.80452305  0.69957494  0.09243599     0.09000
H538        H  0.95359556  0.70946549  0.95930801     0.06600
H539        H  0.81646308  0.86646097  0.48189067     0.06400
C540        C  0.94084045  0.91892662  0.40158047    -0.02200
C541        C  0.93767403  0.58723870  0.08700525    -0.02200
C542        C  0.80492676  0.52933604  0.98158060     0.03400
C543        C  0.83945783  0.57881297  0.01013122    -0.12700
C544        C  0.90931751  0.57296421  0.01672882     0.00900
C545        C  0.93917317  0.53197321  0.96820873    -0.11200
C546        C  0.90840051  0.97248554  0.44830260     0.03400
C547        C  0.83910632  0.97671087  0.45288647    -0.10600
H548        H  0.80992438  0.60996709  0.04074437     0.09000
H549        H  0.98814558  0.54209487  0.95143475     0.06600
H550        H  0.81016153  0.94444497  0.42455975     0.06400
O551        O  0.21006382  0.97991962  0.24955294    -0.71500
O552        O  0.03923559  0.93953384  0.25653239    -0.71700
O553        O  0.09939521  0.99778550  0.16950750    -0.71500
O554        O  0.12569933  0.92010196  0.33472263    -0.71500
O555        O  0.09471164  0.50819174  0.37929804    -0.71500
O556        O  0.06796580  0.58510433  0.21623449    -0.71500
O557        O  0.01396428  0.52996640  0.30807800    -0.71500
O558        O  0.18706955  0.57389631  0.29491709    -0.71700
V559        V  0.12087269  0.96107713  0.25342240     1.35200
V560        V  0.09609833  0.54982885  0.29827292     1.35200
C561        C  0.22965539  0.53228128  0.27324703     0.77800
C562        C  0.00247826  0.48613221  0.27001941     0.77800
C563        C  0.06452985  0.55213437  0.16533248     0.77700
C564        C  0.08437716  0.94673018  0.37371544     0.77700
O565        O  0.77182770  0.92819100  0.20467823    -0.71500
O566        O  0.94786634  0.95706324  0.19106900    -0.71700
O567        O  0.89046585  0.90880064  0.28487188    -0.71500
O568        O  0.86948237  0.98675841  0.12023126    -0.71500
O569        O  0.83850153  0.57475721  0.16431545    -0.71500
O570        O  0.86922286  0.49986027  0.32996833    -0.71500
O571        O  0.92933175  0.55200939  0.23723870    -0.71500
O572        O  0.75557786  0.52155412  0.25328196    -0.71700
V573        V  0.86439424  0.94486491  0.20164637     1.35200
V574        V  0.84607549  0.53537175  0.24567939     1.35200
C575        C  0.73223374  0.47187887  0.22742774     0.77800
C576        C  0.96244496  0.50168150  0.22677706     0.77800
C577        C  0.89934722  0.94307052  0.33509747     0.77700
C578        C  0.88002359  0.54818043  0.12591080     0.77700
C579        C  0.02203213  0.82821096  0.40533136    -0.02200
C580        C  0.03113040  0.65925011  0.09141132    -0.02200
C581        C  0.16276750  0.71733915  0.97283181     0.03400
C582        C  0.12466210  0.67226736  0.00547615    -0.12700
C583        C  0.05906263  0.68962069  0.02759705     0.00900
C584        C  0.04265734  0.75776525  0.01406877    -0.11200
C585        C  0.06394753  0.78746293  0.45772678     0.03400
C586        C  0.13144160  0.77249498  0.44724164    -0.10600
H587        H  0.15340367  0.63512772  0.02707294     0.09000
H588        H  0.01137476  0.78647698  0.04645126     0.06600
H589        H  0.15995594  0.80012894  0.41385689     0.06400
C590        C  0.02735661  0.90858943  0.41458728    -0.02200
C591        C  0.02368464  0.57678419  0.09994065    -0.02200
C592        C  0.16096052  0.46969656  0.02062906     0.03400
C593        C  0.12542559  0.52179925  0.04821569    -0.12700
C594        C  0.05635440  0.52454308  0.05265519     0.00900
C595        C  0.02666277  0.46450101  0.03287248    -0.11200
C596        C  0.05717852  0.92482676  0.48391882     0.03400
C597        C  0.12753433  0.92073093  0.48990508    -0.10600
H598        H  0.15335157  0.55368231  0.07771854     0.09000
H599        H  0.97768467  0.45372154  0.04918682     0.06600
H600        H  0.15793245  0.89148839  0.45836482     0.06400
O601        O  0.69240048  0.82590509  0.54866098    -0.71500
O602        O  0.51630938  0.79722712  0.56224894    -0.71700
O603        O  0.59469962  0.76747494  0.63311668    -0.71500
O604        O  0.57384326  0.84540593  0.96842466    -0.71500
O605        O  0.59483413  0.75426608  0.92338793    -0.71500
O606        O  0.62569895  0.67947365  0.58906031    -0.71500
O607        O  0.53473850  0.70221930  0.01626392    -0.71500
O608        O  0.70852302  0.73255439  0.99998098    -0.71700
V609        V  0.59981420  0.80933341  0.55168300     1.35200
V610        V  0.61802042  0.71879928  0.00768963     1.35200
C611        C  0.73193132  0.78220093  0.52584309     0.77800
C612        C  0.50170266  0.75262639  0.02659254     0.77800
C613        C  0.58418247  0.70605350  0.62745416     0.77700
C614        C  0.56487924  0.81112877  0.91820972     0.77700
O615        O  0.25422441  0.77434240  0.50368911    -0.71500
O616        O  0.42504161  0.81476592  0.49661527    -0.71700
O617        O  0.33852688  0.83413524  0.91848095    -0.71500
O618        O  0.36488398  0.75650257  0.58371231    -0.71500
O619        O  0.39625858  0.66916487  0.53701213    -0.71500
O620        O  0.36953659  0.74605368  0.87392683    -0.71500
O621        O  0.45031185  0.72433048  0.94518975    -0.71500
O622        O  0.27718085  0.68036339  0.95828713    -0.71700
V623        V  0.34340338  0.79318984  0.49977954     1.35200
V624        V  0.36816347  0.70443587  0.95495787     1.35200
C625        C  0.23459569  0.72198977  0.47997979     0.77800
C626        C  0.46176281  0.76815000  0.48324544     0.77800
C627        C  0.37985782  0.80751475  0.87949667     0.77700
C628        C  0.39968199  0.70212374  0.58792440     0.77700
C629        C  0.43688815  0.84566864  0.83867276    -0.02200
C630        C  0.44053094  0.67747538  0.65333393    -0.02200
C631        C  0.30327356  0.78474981  0.73255293     0.03400
C632        C  0.33878267  0.73258509  0.70501477    -0.12700
C633        C  0.40786468  0.72976495  0.70059971     0.00900
C634        C  0.43760111  0.78977868  0.72039535    -0.11200
C635        C  0.40709766  0.82948692  0.76932375     0.03400
C636        C  0.33674755  0.83366717  0.76330090    -0.10600
H637        H  0.31083436  0.70068161  0.67555618     0.09000
H638        H  0.48660044  0.80051262  0.70411008     0.06600
H639        H  0.30636735  0.86290877  0.79485429     0.06400
C640        C  0.44220494  0.92605010  0.84795302    -0.02200
C641        C  0.43310813  0.59500805  0.66185614    -0.02200
C642        C  0.30147833  0.53694829  0.78041554     0.03400
C643        C  0.33959499  0.58202887  0.74779185    -0.12700
C644        C  0.40518773  0.56465298  0.72567660     0.00900
C645        C  0.42157471  0.49650505  0.73921109    -0.11200
C646        C  0.40029576  0.96683795  0.79557027     0.03400
C647        C  0.33280896  0.98184521  0.80607213    -0.10600
H648        H  0.31088814  0.61919823  0.72620362     0.09000
H649        H  0.45282296  0.46777384  0.70681538     0.06600
H650        H  0.30428634  0.95423113  0.83946887     0.06400
O651        O  0.69567050  0.57093325  0.96272569    -0.71500
O652        O  0.52025740  0.54781809  0.94272703    -0.71700
O653        O  0.57602402  0.59493412  0.53870677    -0.71500
O654        O  0.60388361  0.51436240  0.87527313    -0.71500
O655        O  0.62976492  0.92552968  0.91769267    -0.71500
O656        O  0.58711776  0.00173538  0.58163553    -0.71500
O657        O  0.53336622  0.95187048  0.48617411    -0.71500
O658        O  0.70726169  0.97756900  0.51099024    -0.71700
V659        V  0.60373509  0.55693969  0.95616188     1.35200
V660        V  0.61658953  0.96578655  0.49892616     1.35200
C661        C  0.73287835  0.52698892  0.48675639     0.77800
C662        C  0.50227185  0.50303437  0.47638461     0.77800
C663        C  0.56165463  0.56055994  0.58723846     0.77700
C664        C  0.59074579  0.95325604  0.87911849     0.77700
O665        O  0.25383773  0.52860386  0.99356762    -0.71500
O666        O  0.42540432  0.56523510  0.00579499    -0.71700
O667        O  0.37030420  0.50861965  0.91768912    -0.71500
O668        O  0.33476781  0.58802451  0.58159372    -0.71500
O669        O  0.36067165  0.99913422  0.62453532    -0.71500
O670        O  0.39436522  0.91912750  0.96318969    -0.71500
O671        O  0.44652358  0.97457449  0.55629806    -0.71500
O672        O  0.27362583  0.93427907  0.53795580    -0.71700
V673        V  0.34356823  0.54585957  0.00029524     1.35200
V674        V  0.36419554  0.95660453  0.54430766     1.35200
C675        C  0.23269042  0.47609919  0.51556871     0.77800
C676        C  0.46070191  0.51844254  0.51934699     0.77800
C677        C  0.40191925  0.95243163  0.91330775     0.77700
C678        C  0.37379933  0.56021538  0.62057270     0.77700
C679        C  0.53035217  0.91768549  0.84013286    -0.02200
C680        C  0.52149854  0.58673661  0.65369356    -0.02200
C681        C  0.66021003  0.47125530  0.71988657     0.03400
C682        C  0.62069987  0.92699300  0.75165796    -0.12700
C683        C  0.55678601  0.94683021  0.77549815     0.00900
C684        C  0.54178456  0.51542182  0.76185636    -0.11200
C685        C  0.56321831  0.54420791  0.70505049     0.03400
C686        C  0.63039735  0.52708909  0.69372993    -0.10600
H687        H  0.64766105  0.88761358  0.77133022     0.09000
H688        H  0.51069557  0.54474039  0.79393450     0.06600
H689        H  0.65971277  0.55449308  0.66075935     0.06400
C690        C  0.52339999  0.83528312  0.85170247    -0.02200
C691        C  0.52653500  0.66697746  0.66629745    -0.02200
C692        C  0.65928819  0.72470952  0.77176572     0.03400
C693        C  0.62471454  0.67525550  0.74321899    -0.12700
C694        C  0.55486073  0.68118293  0.73659270     0.00900
C695        C  0.52501530  0.72221442  0.78508710    -0.11200
C696        C  0.55583984  0.78167272  0.80500597     0.03400
C697        C  0.62514429  0.77736878  0.80045281    -0.10600
H698        H  0.65421966  0.64407089  0.71260806     0.09000
H699        H  0.47602172  0.71214065  0.80183398     0.06600
H700        H  0.65411214  0.80965056  0.82874068     0.06400
O701        O  0.21043726  0.72582251  0.75964336    -0.71500
O702        O  0.03891875  0.68903963  0.74756394    -0.71700
O703        O  0.12946999  0.66628578  0.67169050    -0.71500
O704        O  0.09403180  0.74573259  0.83559085    -0.71500
O705        O  0.06972910  0.83516182  0.79006914    -0.71500
O706        O  0.10356031  0.75516808  0.62873615    -0.71500
O707        O  0.01771273  0.77961778  0.69694311    -0.71500
O708        O  0.19054960  0.82017316  0.71533903    -0.71700
V709        V  0.12072669  0.70849062  0.75298387     1.35200
V710        V  0.09999518  0.79771808  0.70896251     1.35200
C711        C  0.23152802  0.77833420  0.73767704     0.77800
C712        C  0.00355035  0.73578616  0.73390434     0.77800
C713        C  0.09043699  0.69407494  0.63269741     0.77700
C714        C  0.06229373  0.80185821  0.83996721     0.77700
O715        O  0.76861052  0.68311061  0.79046021    -0.71500
O716        O  0.94399069  0.70641914  0.81051475    -0.71700
O717        O  0.86037457  0.73980433  0.87793844    -0.71500
O718        O  0.88835100  0.65926623  0.71452476    -0.71500
O719        O  0.87701935  0.75242038  0.67156026    -0.71500
O720        O  0.83448740  0.82863461  0.83551470    -0.71500
O721        O  0.93081222  0.80230567  0.76696367    -0.71500
O722        O  0.75692238  0.77651039  0.74230395    -0.71700
V723        V  0.86053841  0.69721436  0.79704928     1.35200
V724        V  0.84759835  0.78834808  0.75428793     1.35200
C725        C  0.73134032  0.72704299  0.76651724     0.77800
C726        C  0.96193956  0.75120968  0.77681507     0.77800
C727        C  0.87351289  0.80091960  0.87409538     0.77700
C728        C  0.90258402  0.69364464  0.66597008     0.77700
C729        C  0.93387962  0.83651518  0.91312685    -0.00600
C730        C  0.94273323  0.66747933  0.59953741    -0.02200
C731        C  0.80397166  0.78279784  0.53329551     0.03400
C732        C  0.83380983  0.72697335  0.55943376    -0.12700
C733        C  0.90100751  0.70993477  0.54814956     0.00900
C734        C  0.92246498  0.73875904  0.49137339    -0.11200
C735        C  0.90741961  0.80733381  0.97774280     0.03400
C736        C  0.84346481  0.82709377  0.00154964    -0.10600
H737        H  0.80451736  0.69957165  0.59242342     0.09000
H738        H  0.95359179  0.70947179  0.45930192     0.06600
H739        H  0.81645595  0.86643974  0.98187298     0.06400
C740        C  0.94083785  0.91891943  0.90158153    -0.02200
C741        C  0.93767137  0.58723651  0.58700000    -0.02200
C742        C  0.80492204  0.52931531  0.48159359     0.03400
C743        C  0.83945144  0.57880210  0.51013118    -0.12700
C744        C  0.90931210  0.57295886  0.51672519     0.00900
C745        C  0.93916697  0.53196578  0.46820666    -0.11200
C746        C  0.90839943  0.97247455  0.94830612     0.03400
C747        C  0.83910579  0.97669480  0.95289547    -0.10600
H748        H  0.80991874  0.60996078  0.54073948     0.09000
H749        H  0.98813920  0.54208779  0.45143093     0.06600
H750        H  0.81016061  0.94443405  0.92456397     0.06400
O751        O  0.21005561  0.97991377  0.74955411    -0.71500
O752        O  0.03922564  0.93953183  0.75654423    -0.71700
O753        O  0.09938573  0.99778213  0.66951410    -0.71500
O754        O  0.12569718  0.92009601  0.83472772    -0.71500
O755        O  0.09471734  0.50819534  0.87928948    -0.71500
O756        O  0.06797505  0.58510595  0.71622690    -0.71500
O757        O  0.01397143  0.52996765  0.80806662    -0.71500
O758        O  0.18707613  0.57389760  0.79491194    -0.71700
V759        V  0.12086444  0.96107248  0.75342846     1.35200
V760        V  0.09610534  0.54983044  0.79826462     1.35200
C761        C  0.22966259  0.53228170  0.77324498     0.77800
C762        C  0.00248540  0.48613226  0.77000910     0.77800
C763        C  0.06453481  0.55213544  0.66532550     0.77700
C764        C  0.08437657  0.94672291  0.87372197     0.77700
O765        O  0.77182559  0.92819322  0.70467986    -0.71500
O766        O  0.94786327  0.95707095  0.69107524    -0.71700
O767        O  0.89045958  0.90880150  0.78487449    -0.71500
O768        O  0.86947992  0.98676475  0.62023621    -0.71500
O769        O  0.83850068  0.57475406  0.66431077    -0.71500
O770        O  0.86923028  0.49986400  0.82996356    -0.71500
O771        O  0.92933657  0.55200843  0.73723028    -0.71500
O772        O  0.75558198  0.52155514  0.75328094    -0.71700
V773        V  0.86439141  0.94486955  0.70165021     1.35200
V774        V  0.84607980  0.53537189  0.74567485     1.35200
C775        C  0.73223728  0.47188021  0.72742671     0.77800
C776        C  0.96244958  0.50168016  0.72676856     0.77800
C777        C  0.89934069  0.94306789  0.83510167     0.77700
C778        C  0.88002309  0.54817748  0.62590699     0.77700
C779        C  0.02202858  0.82820250  0.90532704    -0.02200
C780        C  0.03112618  0.65925036  0.59140301    -0.02200
C781        C  0.16276828  0.71735754  0.47284599     0.03400
C782        C  0.12465734  0.67227204  0.50546749    -0.12700
C783        C  0.05905705  0.68962294  0.52758971     0.00900
C784        C  0.04265114  0.75776896  0.51406885    -0.11200
C785        C  0.06394685  0.78744867  0.95771746     0.03400
C786        C  0.13143788  0.77247163  0.94722074    -0.10600
H787        H  0.15339176  0.63511566  0.52704437     0.09000
H788        H  0.01136858  0.78647717  0.54645427     0.06600
H789        H  0.15995010  0.80010622  0.91383342     0.06400
C790        C  0.02735402  0.90858054  0.91458883    -0.02200
C791        C  0.02368357  0.57678335  0.59993420    -0.02200
C792        C  0.16095444  0.46967298  0.52064028     0.03400
C793        C  0.12542131  0.52178759  0.54821099    -0.12700
C794        C  0.05635003  0.52453743  0.55265006     0.00900
C795        C  0.02665557  0.46449502  0.53287295    -0.11200
C796        C  0.05717390  0.92481254  0.98392263     0.03400
C797        C  0.12752957  0.92070878  0.98991369    -0.10600
H798        H  0.15334830  0.55367720  0.57770547     0.09000
H799        H  0.97767770  0.45371848  0.54918955     0.06600
H800        H  0.15792599  0.89145884  0.95837713     0.06400
loop_ 
_geom_bond_atom_site_label_1 
_geom_bond_atom_site_label_2 
_geom_bond_distance 
_geom_bond_site_symmetry_2 
_ccdc_geom_bond_type 
O1            V9   1.923       .  S
O1           C11   1.267       .  A
O2            V9   1.735       .  S
O2          C212   1.226       .  A
O3            V9   1.932       .  S
O3           C13   1.285       .  A
O4          V209   1.983       .  S
O4           C14   1.287       .  A
O5           V10   1.984       .  S
O5           C14   1.295       .  A
O6          V210   1.910       .  S
O6           C13   1.269       .  A
O7           V10   1.745       .  S
O7           C12   1.224       .  A
O8           V10   1.875       .  S
O8          C211   1.260       .  A
V9          O204   1.983   1_554  S
V9          V210   2.082       .  T
V10         O206   1.910       .  S
V10         V209   2.082       .  T
C11         O208   1.260   1_554  A
C11         C131   1.473       .  S
C12         O202   1.226       .  A
C12         C226   1.265       .  S
C13          C91   1.655       .  S
C14          C90   1.714       .  S
O15          V23   1.866   1_554  S
O15          C25   1.258   1_554  A
O16          V23   1.732       .  S
O16          C26   1.216       .  A
O17         V223   1.919       .  S
O17          C27   1.275       .  A
O18          V23   1.979   1_554  S
O18          C28   1.297       .  A
O19         V224   1.966   1_554  S
O19          C28   1.271       .  A
O20          V24   1.919       .  S
O20          C27   1.284       .  A
O21          V24   1.742       .  S
O21         C226   1.231       .  A
O22          V24   1.930       .  S
O22         C225   1.269       .  A
V23         O217   1.919       .  S
V23         V224   2.081       .  T
V24         O219   1.966       .  S
V24         V223   2.081       .  T
C25         O222   1.269       .  A
C25         C181   1.474       .  S
C26         O221   1.231       .  A
C26         C212   1.265   1_556  S
C27          C29   1.658       .  S
C28          C30   1.691       .  S
C29          C35   1.630       .  S
C29          C40   1.659       .  S
C29          C90   1.786       .  S
C30          C33   1.580       .  S
C30          C41   1.706       .  S
C30          C91   1.776       .  S
C31         C111   1.470       .  S
C31          C32   1.385       .  A
C31          C36   1.391       .  A
C32          C33   1.404       .  A
C32          H37   1.079       .  S
C33          C34   1.447       .  A
C34          C35   1.432       .  A
C34          H38   1.080       .  S
C35          C36   1.435       .  A
C36          H39   1.068       .  S
C40          C46   1.620       .  S
C40          C77   1.675       .  S
C40          C79   1.797       .  S
C41          C44   1.597       .  S
C41          C78   1.673       .  S
C41          C80   1.802       .  S
C42         C161   1.474       .  S
C42          C43   1.404       .  A
C42         C447   1.387   1_545  A
C43          C44   1.438       .  A
C43          H48   1.049       .  S
C44          C45   1.449   1_545  A
C45         C446   1.412       .  A
C45          H49   1.083       .  S
C46          C47   1.407       .  A
C46         C445   1.412       .  A
C47         C442   1.387       .  A
C47          H50   1.083       .  S
O51          V59   1.905       .  S
O51         C261   1.263       .  A
O52          V59   1.738       .  S
O52         C262   1.227       .  A
O53         V259   1.974   1_554  S
O53          C63   1.285       .  A
O54          V59   1.915       .  S
O54         C464   1.288   1_545  A
O55         V260   1.912       .  S
O55          C64   1.265       .  A
O56          V60   1.972   1_554  S
O56         C463   1.293       .  A
O57          V60   1.747       .  S
O57         C462   1.219       .  A
O58          V60   1.885   1_554  S
O58         C461   1.262   1_554  A
V59         O253   1.974       .  S
V59         V660   2.082   1_545  T
V60         O255   1.912       .  S
V60         V659   2.082       .  T
C61         O251   1.263       .  A
C61         O458   1.262   1_546  A
C61         C142   1.468       .  S
C62         O252   1.227       .  A
C62         O457   1.219   1_545  A
C62          C76   1.264   1_556  S
C63         O456   1.293       .  A
C63          C80   1.691       .  S
C64         O454   1.288       .  A
C64          C79   1.671       .  S
O65          V73   1.875       .  S
O65         C275   1.259   1_545  A
O66          V73   1.727       .  S
O66         C276   1.210       .  A
O67          V73   1.965       .  S
O67         C477   1.295   1_545  A
O68         V273   1.922       .  S
O68          C78   1.271       .  A
O69          V74   1.901       .  S
O69         C478   1.288       .  A
O70         V274   1.958       .  S
O70          C77   1.270       .  A
O71          V74   1.746       .  S
O71         C476   1.232       .  A
O72          V74   1.917       .  S
O72         C475   1.267       .  A
V73         O268   1.922       .  S
V73         V674   2.082   1_545  T
V74         O270   1.958   1_554  S
V74         V673   2.082       .  T
C75         O265   1.259   1_564  A
C75         O472   1.267       .  A
C75         C192   1.470       .  S
C76         O266   1.210       .  A
C76         O471   1.232   1_545  A
C77         O467   1.295       .  A
C78         O469   1.288   1_545  A
C79          C83   1.591       .  S
C79          C90   1.712       .  S
C80          C85   1.621       .  S
C80          C91   1.665       .  S
C81         C175   1.473       .  S
C81          C86   1.391   1_565  A
C81         C482   1.401       .  A
C82          C83   1.430       .  A
C82         C481   1.401       .  A
C82          H87   1.046       .  S
C83         C484   1.453       .  A
C84          C85   1.413       .  A
C84         C483   1.453   1_545  A
C84          H88   1.084       .  S
C85          C86   1.412       .  A
C86          H89   1.084       .  S
C90          C96   1.589       .  S
C91          C94   1.629       .  S
C92         C125   1.468       .  S
C92          C93   1.390       .  A
C92          C97   1.389       .  A
C93          C94   1.427       .  A
C93          H98   1.068       .  S
C94          C95   1.435       .  A
C95          C96   1.449       .  A
C95          H99   1.080       .  S
C96          C97   1.409       .  A
C97         H100   1.082       .  S
O101        V109   1.875       .  S
O101        C111   1.259       .  A
O102        V109   1.727       .  S
O102        C112   1.210       .  A
O103        V109   1.923       .  S
O103        C113   1.272       .  A
O104        V109   1.964       .  S
O104        C114   1.295       .  A
O105        V110   1.958       .  S
O105        C114   1.270       .  A
O106        V110   1.902       .  S
O106        C113   1.288       .  A
O107        V110   1.745       .  S
O107        C112   1.232       .  A
O108        V110   1.917       .  S
O108        C111   1.267       .  A
V109        V110   2.082       .  T
C112        C126   1.264   1_455  S
C113        C180   1.673       .  S
C114        C179   1.674       .  S
O115        V123   1.906       .  S
O115        C125   1.263       .  A
O116        V123   1.738       .  S
O116        C126   1.227       .  A
O117        V123   1.915       .  S
O117        C127   1.288       .  A
O118        V123   1.974       .  S
O118        C128   1.284       .  A
O119        V124   1.972       .  S
O119        C128   1.293       .  A
O120        V124   1.912       .  S
O120        C127   1.265       .  A
O121        V124   1.747       .  S
O121        C126   1.219       .  A
O122        V124   1.885       .  S
O122        C125   1.262       .  A
V123        V124   2.082       .  T
C127        C129   1.672       .  S
C128        C130   1.691       .  S
C129        C135   1.591       .  S
C129        C140   1.712       .  S
C129        C179   1.797   1_655  S
C130        C133   1.621       .  S
C130        C141   1.664       .  S
C130        C180   1.802   1_655  S
C131        C132   1.391       .  A
C131        C336   1.401       .  A
C132        C133   1.412       .  A
C132        H137   1.084       .  S
C133        C134   1.413   1_554  A
C134        C335   1.453       .  A
C134        H138   1.084       .  S
C135        C136   1.430       .  A
C135        C334   1.453       .  A
C136        C331   1.401       .  A
C136        H139   1.046       .  S
C140        C146   1.589       .  S
C140        C177   1.713       .  S
C140        C190   1.786   1_655  S
C141        C144   1.629       .  S
C141        C178   1.656       .  S
C141        C191   1.776   1_655  S
C142        C143   1.390   1_556  A
C142        C747   1.389   1_545  A
C143        C144   1.427       .  A
C143        H148   1.068       .  S
C144        C145   1.435   1_554  A
C145        C746   1.449   1_545  A
C145        H149   1.080       .  S
C146        C147   1.408       .  A
C146        C745   1.449       .  A
C147        C742   1.389       .  A
C147        H150   1.082       .  S
O151        V159   1.866       .  S
O151        C561   1.258       .  A
O152        V159   1.731       .  S
O152        C562   1.216       .  A
O153        V159   1.978       .  S
O153        C563   1.297       .  A
O154        V159   1.920       .  S
O154        C164   1.275       .  A
O155        V160   1.919       .  S
O155        C564   1.284   1_545  A
O156        V160   1.966       .  S
O156        C163   1.271       .  A
O157        V160   1.741       .  S
O157        C162   1.231   1_545  A
O158        V160   1.930       .  S
O158        C161   1.269       .  A
V159        V560   2.081       .  T
V160        V559   2.081   1_545  T
C161        O551   1.258   1_545  A
C162        O552   1.216       .  A
C162        C176   1.265   1_465  S
C163        O553   1.297   1_545  A
C163        C191   1.691       .  S
C164        O555   1.284       .  A
C164        C190   1.658       .  S
O165        V173   1.923       .  S
O165        C575   1.267       .  A
O166        V173   1.734       .  S
O166        C576   1.226       .  A
O167        V173   1.983       .  S
O167        C177   1.287       .  A
O168        V173   1.932       .  S
O168        C578   1.285       .  A
O169        V174   1.910       .  S
O169        C178   1.269       .  A
O170        V174   1.984   1_565  S
O170        C577   1.295       .  A
O171        V174   1.744       .  S
O171        C176   1.224       .  A
O172        V174   1.875       .  S
O172        C175   1.260   1_545  A
V173        V574   2.082       .  T
V174        V573   2.082   1_545  T
C175        O565   1.267       .  A
C176        O566   1.226   1_545  A
C177        O570   1.295       .  A
C178        O568   1.285   1_545  A
C179        C185   1.620       .  S
C179        C190   1.659       .  S
C180        C183   1.597       .  S
C180        C191   1.706       .  S
C181        C182   1.404   1_556  A
C181        C386   1.388       .  A
C182        C183   1.438       .  A
C182        H187   1.049       .  S
C183        C184   1.449       .  A
C184        C385   1.412   1_554  A
C184        H188   1.083       .  S
C185        C186   1.407       .  A
C185        C384   1.412       .  A
C186        C381   1.388       .  A
C186        H189   1.083       .  S
C190        C196   1.630       .  S
C191        C194   1.580       .  S
C192        C193   1.384   1_565  A
C192        C797   1.391   1_554  A
C193        C194   1.403       .  A
C193        H198   1.079       .  S
C194        C195   1.447   1_545  A
C195        C796   1.432   1_554  A
C195        H199   1.080   1_455  S
C196        C197   1.435       .  A
C196        C795   1.432       .  A
C197        C792   1.391       .  A
C197        H200   1.068       .  S
O201        V209   1.923       .  S
O201        C211   1.267       .  A
O202        V209   1.735       .  S
O203        V209   1.932       .  S
O203        C213   1.285       .  A
O204        C214   1.287       .  A
O205        V210   1.984   1_556  S
O205        C214   1.295       .  A
O206        C213   1.269       .  A
O207        V210   1.745       .  S
O207        C212   1.224       .  A
O208        V210   1.875   1_556  S
C211        C331   1.473       .  S
C213        C291   1.655       .  S
C214        C290   1.714       .  S
O215        V223   1.866       .  S
O215        C225   1.258       .  A
O216        V223   1.732       .  S
O216        C226   1.216       .  A
O217        C227   1.275       .  A
O218        V223   1.979       .  S
O218        C228   1.297       .  A
O219        C228   1.271       .  A
O220        V224   1.919       .  S
O220        C227   1.284       .  A
O221        V224   1.742       .  S
O222        V224   1.930       .  S
C225        C381   1.474       .  S
C227        C229   1.658       .  S
C228        C230   1.691       .  S
C229        C235   1.630       .  S
C229        C240   1.659       .  S
C229        C290   1.786       .  S
C230        C233   1.580       .  S
C230        C241   1.706       .  S
C230        C291   1.776       .  S
C231        C311   1.470       .  S
C231        C232   1.385       .  A
C231        C236   1.391       .  A
C232        C233   1.404       .  A
C232        H237   1.079       .  S
C233        C234   1.447       .  A
C234        C235   1.432       .  A
C234        H238   1.080       .  S
C235        C236   1.435       .  A
C236        H239   1.068       .  S
C240        C246   1.620       .  S
C240        C277   1.675       .  S
C240        C279   1.797       .  S
C241        C244   1.597       .  S
C241        C278   1.673       .  S
C241        C280   1.802       .  S
C242        C361   1.474       .  S
C242        C243   1.404       .  A
C242        C647   1.387   1_545  A
C243        C244   1.438       .  A
C243        H248   1.049       .  S
C244        C245   1.449   1_545  A
C245        C646   1.412       .  A
C245        H249   1.083       .  S
C246        C645   1.412       .  A
C246        C247   1.407       .  A
C247        C642   1.387       .  A
C247        H250   1.083       .  S
O251        V259   1.905       .  S
O252        V259   1.738       .  S
O253        C263   1.285       .  A
O254        V259   1.915       .  S
O254        C664   1.288   1_545  A
O255        C264   1.265       .  A
O256        V260   1.972       .  S
O256        C663   1.293       .  A
O257        V260   1.748       .  S
O257        C662   1.219       .  A
O258        V260   1.885       .  S
O258        C661   1.262       .  A
V259        V460   2.082   1_545  T
V260        V459   2.082       .  T
C261        O658   1.262   1_545  A
C261        C342   1.468       .  S
C262        O657   1.219   1_545  A
C262        C276   1.264       .  S
C263        O656   1.293       .  A
C263        C280   1.691       .  S
C264        O654   1.288       .  A
C264        C279   1.671       .  S
O265        V273   1.875   1_556  S
O266        V273   1.727       .  S
O267        V273   1.965   1_556  S
O267        C677   1.295   1_545  A
O268        C278   1.271       .  A
O269        V274   1.901       .  S
O269        C678   1.288       .  A
O270        C277   1.270       .  A
O271        V274   1.746       .  S
O271        C676   1.232       .  A
O272        V274   1.917       .  S
O272        C675   1.267       .  A
V273        V474   2.082   1_545  T
V274        V473   2.082       .  T
C275        O672   1.267       .  A
C275        C392   1.470       .  S
C276        O671   1.232   1_545  A
C277        O667   1.295       .  A
C278        O669   1.288   1_545  A
C279        C283   1.591       .  S
C279        C290   1.712       .  S
C280        C285   1.621       .  S
C280        C291   1.665       .  S
C281        C375   1.473       .  S
C281        C682   1.401       .  A
C281        C286   1.391   1_565  A
C282        C681   1.401       .  A
C282        C283   1.430       .  A
C282        H287   1.046       .  S
C283        C684   1.453       .  A
C284        C683   1.453   1_545  A
C284        C285   1.413       .  A
C284        H288   1.084       .  S
C285        C286   1.412       .  A
C286        H289   1.084       .  S
C290        C296   1.589       .  S
C291        C294   1.629       .  S
C292        C325   1.468       .  S
C292        C293   1.390       .  A
C292        C297   1.389       .  A
C293        C294   1.427       .  A
C293        H298   1.068       .  S
C294        C295   1.435       .  A
C295        C296   1.449       .  A
C295        H299   1.080       .  S
C296        C297   1.409       .  A
C297        H300   1.082       .  S
O301        V309   1.875       .  S
O301        C311   1.259       .  A
O302        V309   1.727       .  S
O302        C312   1.210       .  A
O303        V309   1.923       .  S
O303        C313   1.272       .  A
O304        V309   1.964       .  S
O304        C314   1.295       .  A
O305        V310   1.958       .  S
O305        C314   1.270       .  A
O306        V310   1.902       .  S
O306        C313   1.288       .  A
O307        V310   1.745       .  S
O307        C312   1.232       .  A
O308        V310   1.917       .  S
O308        C311   1.267       .  A
V309        V310   2.082       .  T
C312        C326   1.264   1_455  S
C313        C380   1.673       .  S
C314        C379   1.674       .  S
O315        V323   1.906       .  S
O315        C325   1.263       .  A
O316        V323   1.738       .  S
O316        C326   1.227       .  A
O317        V323   1.915       .  S
O317        C327   1.288       .  A
O318        V323   1.974       .  S
O318        C328   1.284       .  A
O319        V324   1.972       .  S
O319        C328   1.293       .  A
O320        V324   1.912       .  S
O320        C327   1.265       .  A
O321        V324   1.747       .  S
O321        C326   1.219       .  A
O322        V324   1.885       .  S
O322        C325   1.262       .  A
V323        V324   2.082       .  T
C327        C329   1.672       .  S
C328        C330   1.691       .  S
C329        C335   1.591       .  S
C329        C340   1.712       .  S
C329        C379   1.797   1_655  S
C330        C333   1.621       .  S
C330        C341   1.664       .  S
C330        C380   1.802   1_655  S
C331        C332   1.391       .  A
C332        C333   1.412       .  A
C332        H337   1.084       .  S
C333        C334   1.413       .  A
C334        H338   1.084       .  S
C335        C336   1.430   1_556  A
C336        H339   1.046   1_554  S
C340        C346   1.589       .  S
C340        C377   1.713       .  S
C340        C390   1.786   1_655  S
C341        C344   1.629       .  S
C341        C378   1.656       .  S
C341        C391   1.776   1_655  S
C342        C343   1.390       .  A
C342        C547   1.389   1_545  A
C343        C344   1.427       .  A
C343        H348   1.068       .  S
C344        C345   1.435       .  A
C345        C546   1.449   1_545  A
C345        H349   1.080       .  S
C346        C545   1.449       .  A
C346        C347   1.408       .  A
C347        C542   1.389       .  A
C347        H350   1.082       .  S
O351        V359   1.866       .  S
O351        C761   1.258       .  A
O352        V359   1.731       .  S
O352        C762   1.216       .  A
O353        V359   1.978       .  S
O353        C763   1.297       .  A
O354        V359   1.920       .  S
O354        C364   1.275       .  A
O355        V360   1.919       .  S
O355        C764   1.284   1_545  A
O356        V360   1.966       .  S
O356        C363   1.271       .  A
O357        V360   1.741       .  S
O357        C362   1.231   1_545  A
O358        V360   1.930       .  S
O358        C361   1.269       .  A
V359        V760   2.081       .  T
V360        V759   2.081   1_545  T
C361        O751   1.258   1_545  A
C362        O752   1.216       .  A
C362        C376   1.265   1_465  S
C363        O753   1.297   1_545  A
C363        C391   1.691       .  S
C364        O755   1.284       .  A
C364        C390   1.658       .  S
O365        V373   1.923       .  S
O365        C775   1.267       .  A
O366        V373   1.734       .  S
O366        C776   1.226       .  A
O367        V373   1.983       .  S
O367        C377   1.287       .  A
O368        V373   1.932       .  S
O368        C778   1.285       .  A
O369        V374   1.910       .  S
O369        C378   1.269       .  A
O370        V374   1.984   1_565  S
O370        C777   1.295       .  A
O371        V374   1.744       .  S
O371        C376   1.224       .  A
O372        V374   1.875       .  S
O372        C375   1.260   1_545  A
V373        V774   2.082       .  T
V374        V773   2.082   1_545  T
C375        O765   1.267       .  A
C376        O766   1.226   1_545  A
C377        O770   1.295       .  A
C378        O768   1.285   1_545  A
C379        C385   1.620       .  S
C379        C390   1.659       .  S
C380        C383   1.597       .  S
C380        C391   1.706       .  S
C381        C382   1.404       .  A
C382        C383   1.438       .  A
C382        H387   1.049       .  S
C383        C384   1.449       .  A
C384        H388   1.083       .  S
C385        C386   1.407       .  A
C386        H389   1.083       .  S
C390        C396   1.630       .  S
C391        C394   1.580       .  S
C392        C393   1.384   1_565  A
C392        C597   1.391       .  A
C393        C394   1.403       .  A
C393        H398   1.079       .  S
C394        C395   1.447   1_545  A
C395        C596   1.432       .  A
C395        H399   1.080   1_455  S
C396        C595   1.432   1_556  A
C396        C397   1.435       .  A
C397        C592   1.391   1_556  A
C397        H400   1.068       .  S
O401        V409   1.923       .  S
O401        C411   1.267       .  A
O402        V409   1.735       .  S
O402        C612   1.226       .  A
O403        V409   1.932       .  S
O403        C413   1.285       .  A
O404        V609   1.983       .  S
O404        C414   1.287       .  A
O405        V410   1.984       .  S
O405        C414   1.295       .  A
O406        V610   1.910       .  S
O406        C413   1.269       .  A
O407        V410   1.745       .  S
O407        C412   1.224       .  A
O408        V410   1.875       .  S
O408        C611   1.260       .  A
V409        O604   1.983   1_554  S
V409        V610   2.082       .  T
V410        O606   1.910       .  S
V410        V609   2.082       .  T
C411        O608   1.260   1_554  A
C411        C531   1.473       .  S
C412        O602   1.226       .  A
C412        C626   1.265       .  S
C413        C491   1.655       .  S
C414        C490   1.714       .  S
O415        V423   1.866   1_554  S
O415        C425   1.258   1_554  A
O416        V423   1.732       .  S
O416        C426   1.216       .  A
O417        V623   1.920       .  S
O417        C427   1.275       .  A
O418        V423   1.979   1_554  S
O418        C428   1.297       .  A
O419        V624   1.966   1_554  S
O419        C428   1.271       .  A
O420        V424   1.919       .  S
O420        C427   1.284       .  A
O421        V424   1.742       .  S
O421        C626   1.231       .  A
O422        V424   1.930       .  S
O422        C625   1.269       .  A
V423        O617   1.920       .  S
V423        V624   2.081       .  T
V424        O619   1.966       .  S
V424        V623   2.081       .  T
C425        O622   1.269       .  A
C425        C581   1.474       .  S
C426        O621   1.231       .  A
C426        C612   1.265   1_556  S
C427        C429   1.658       .  S
C428        C430   1.691       .  S
C429        C435   1.630       .  S
C429        C440   1.659       .  S
C429        C490   1.786       .  S
C430        C433   1.580       .  S
C430        C441   1.706       .  S
C430        C491   1.776       .  S
C431        C511   1.470       .  S
C431        C432   1.385       .  A
C431        C436   1.391       .  A
C432        C433   1.404       .  A
C432        H437   1.079       .  S
C433        C434   1.447       .  A
C434        C435   1.432       .  A
C434        H438   1.080       .  S
C435        C436   1.435       .  A
C436        H439   1.068       .  S
C440        C446   1.620       .  S
C440        C477   1.675       .  S
C440        C479   1.797       .  S
C441        C444   1.597       .  S
C441        C478   1.673       .  S
C441        C480   1.802       .  S
C442        C561   1.474       .  S
C442        C443   1.404       .  A
C443        C444   1.438       .  A
C443        H448   1.049       .  S
C444        C445   1.449       .  A
C445        H449   1.083       .  S
C446        C447   1.407       .  A
C447        H450   1.083       .  S
O451        V459   1.905       .  S
O451        C661   1.263       .  A
O452        V459   1.738       .  S
O452        C662   1.227       .  A
O453        V659   1.974   1_554  S
O453        C463   1.285       .  A
O454        V459   1.915       .  S
O455        V660   1.912       .  S
O455        C464   1.265       .  A
O456        V460   1.972   1_544  S
O457        V460   1.748       .  S
O458        V460   1.885   1_554  S
V459        O653   1.974       .  S
V460        O655   1.912       .  S
C461        O651   1.263       .  A
C461        C542   1.468       .  S
C462        O652   1.227       .  A
C462        C476   1.264   1_556  S
C463        C480   1.691       .  S
C464        C479   1.671       .  S
O465        V473   1.875       .  S
O465        C675   1.259       .  A
O466        V473   1.727       .  S
O466        C676   1.210       .  A
O467        V473   1.965       .  S
O468        V673   1.922       .  S
O468        C478   1.271       .  A
O469        V474   1.901       .  S
O470        V674   1.958       .  S
O470        C477   1.270       .  A
O471        V474   1.746       .  S
O472        V474   1.917       .  S
V473        O668   1.922       .  S
V474        O670   1.958   1_554  S
C475        O665   1.259   1_554  A
C475        C592   1.470       .  S
C476        O666   1.210       .  A
C479        C483   1.591       .  S
C479        C490   1.712       .  S
C480        C485   1.621       .  S
C480        C491   1.665       .  S
C481        C575   1.473       .  S
C481        C486   1.391       .  A
C482        C483   1.430       .  A
C482        H487   1.046       .  S
C484        C485   1.413       .  A
C484        H488   1.084       .  S
C485        C486   1.412       .  A
C486        H489   1.084       .  S
C490        C496   1.589       .  S
C491        C494   1.629       .  S
C492        C525   1.468       .  S
C492        C493   1.390       .  A
C492        C497   1.389       .  A
C493        C494   1.427       .  A
C493        H498   1.068       .  S
C494        C495   1.435       .  A
C495        C496   1.449       .  A
C495        H499   1.080       .  S
C496        C497   1.409       .  A
C497        H500   1.082       .  S
O501        V509   1.875       .  S
O501        C511   1.259       .  A
O502        V509   1.727       .  S
O502        C512   1.210       .  A
O503        V509   1.923       .  S
O503        C513   1.272       .  A
O504        V509   1.964       .  S
O504        C514   1.295       .  A
O505        V510   1.958       .  S
O505        C514   1.270       .  A
O506        V510   1.902       .  S
O506        C513   1.288       .  A
O507        V510   1.745       .  S
O507        C512   1.232       .  A
O508        V510   1.917       .  S
O508        C511   1.267       .  A
V509        V510   2.082       .  T
C512        C526   1.264   1_455  S
C513        C580   1.673       .  S
C514        C579   1.674       .  S
O515        V523   1.906       .  S
O515        C525   1.263       .  A
O516        V523   1.738       .  S
O516        C526   1.227       .  A
O517        V523   1.915       .  S
O517        C527   1.288       .  A
O518        V523   1.974       .  S
O518        C528   1.284       .  A
O519        V524   1.972       .  S
O519        C528   1.293       .  A
O520        V524   1.912       .  S
O520        C527   1.265       .  A
O521        V524   1.747       .  S
O521        C526   1.219       .  A
O522        V524   1.885       .  S
O522        C525   1.262       .  A
V523        V524   2.082       .  T
C527        C529   1.672       .  S
C528        C530   1.691       .  S
C529        C535   1.591       .  S
C529        C540   1.712       .  S
C529        C579   1.797   1_655  S
C530        C533   1.621       .  S
C530        C541   1.664       .  S
C530        C580   1.802   1_655  S
C531        C532   1.391       .  A
C531        C736   1.401       .  A
C532        C533   1.412       .  A
C532        H537   1.084       .  S
C533        C534   1.413   1_554  A
C534        C735   1.453       .  A
C534        H538   1.084       .  S
C535        C734   1.453       .  A
C535        C536   1.430       .  A
C536        C731   1.401       .  A
C536        H539   1.046       .  S
C540        C546   1.589       .  S
C540        C577   1.713       .  S
C540        C590   1.786   1_655  S
C541        C544   1.629       .  S
C541        C578   1.656       .  S
C541        C591   1.776   1_655  S
C542        C543   1.390   1_556  A
C543        C544   1.427       .  A
C543        H548   1.068       .  S
C544        C545   1.435   1_554  A
C545        H549   1.080       .  S
C546        C547   1.408       .  A
C547        H550   1.082       .  S
O551        V559   1.866       .  S
O552        V559   1.731       .  S
O553        V559   1.978       .  S
O554        V559   1.920       .  S
O554        C564   1.275       .  A
O555        V560   1.919       .  S
O556        V560   1.966       .  S
O556        C563   1.271       .  A
O557        V560   1.741       .  S
O557        C562   1.231       .  A
O558        V560   1.930       .  S
O558        C561   1.269       .  A
C562        C576   1.265   1_455  S
C563        C591   1.691       .  S
C564        C590   1.658       .  S
O565        V573   1.923       .  S
O566        V573   1.734       .  S
O567        V573   1.983       .  S
O567        C577   1.287       .  A
O568        V573   1.932       .  S
O569        V574   1.910       .  S
O569        C578   1.269       .  A
O570        V574   1.984       .  S
O571        V574   1.744       .  S
O571        C576   1.224       .  A
O572        V574   1.875       .  S
O572        C575   1.260       .  A
C579        C585   1.620       .  S
C579        C590   1.659       .  S
C580        C583   1.597       .  S
C580        C591   1.706       .  S
C581        C582   1.404   1_556  A
C581        C786   1.388       .  A
C582        C583   1.438       .  A
C582        H587   1.049       .  S
C583        C584   1.449       .  A
C584        C785   1.412   1_554  A
C584        H588   1.083       .  S
C585        C784   1.412       .  A
C585        C586   1.407       .  A
C586        C781   1.388       .  A
C586        H589   1.083       .  S
C590        C596   1.630       .  S
C591        C594   1.580       .  S
C592        C593   1.384       .  A
C593        C594   1.403       .  A
C593        H598   1.079       .  S
C594        C595   1.447       .  A
C595        H599   1.080   1_455  S
C596        C597   1.435       .  A
C597        H600   1.068       .  S
O601        V609   1.923       .  S
O601        C611   1.267       .  A
O602        V609   1.735       .  S
O603        V609   1.932       .  S
O603        C613   1.285       .  A
O604        C614   1.287       .  A
O605        V610   1.984   1_556  S
O605        C614   1.295       .  A
O606        C613   1.269       .  A
O607        V610   1.745       .  S
O607        C612   1.224       .  A
O608        V610   1.875   1_556  S
C611        C731   1.473       .  S
C613        C691   1.655       .  S
C614        C690   1.714       .  S
O615        V623   1.866       .  S
O615        C625   1.258       .  A
O616        V623   1.732       .  S
O616        C626   1.216       .  A
O617        C627   1.275       .  A
O618        V623   1.979       .  S
O618        C628   1.297       .  A
O619        C628   1.271       .  A
O620        V624   1.919       .  S
O620        C627   1.284       .  A
O621        V624   1.742       .  S
O622        V624   1.930       .  S
C625        C781   1.474       .  S
C627        C629   1.658       .  S
C628        C630   1.691       .  S
C629        C635   1.630       .  S
C629        C640   1.659       .  S
C629        C690   1.786       .  S
C630        C633   1.580       .  S
C630        C641   1.706       .  S
C630        C691   1.776       .  S
C631        C711   1.470       .  S
C631        C632   1.385       .  A
C631        C636   1.391       .  A
C632        C633   1.404       .  A
C632        H637   1.079       .  S
C633        C634   1.447       .  A
C634        C635   1.432       .  A
C634        H638   1.080       .  S
C635        C636   1.435       .  A
C636        H639   1.068       .  S
C640        C646   1.620       .  S
C640        C677   1.675       .  S
C640        C679   1.797       .  S
C641        C644   1.597       .  S
C641        C678   1.673       .  S
C641        C680   1.802       .  S
C642        C761   1.474       .  S
C642        C643   1.404       .  A
C643        C644   1.438       .  A
C643        H648   1.049       .  S
C644        C645   1.449       .  A
C645        H649   1.083       .  S
C646        C647   1.407       .  A
C647        H650   1.083       .  S
O651        V659   1.905       .  S
O652        V659   1.738       .  S
O653        C663   1.285       .  A
O654        V659   1.915       .  S
O655        C664   1.265       .  A
O656        V660   1.972   1_545  S
O657        V660   1.747       .  S
O658        V660   1.885       .  S
C661        C742   1.468       .  S
C662        C676   1.264       .  S
C663        C680   1.691       .  S
C664        C679   1.671       .  S
O665        V673   1.875   1_556  S
O666        V673   1.727       .  S
O667        V673   1.965   1_556  S
O668        C678   1.271       .  A
O669        V674   1.901       .  S
O670        C677   1.270       .  A
O671        V674   1.746       .  S
O672        V674   1.917       .  S
C675        C792   1.470       .  S
C679        C683   1.591       .  S
C679        C690   1.712       .  S
C680        C685   1.621       .  S
C680        C691   1.665       .  S
C681        C775   1.473       .  S
C681        C686   1.391       .  A
C682        C683   1.430       .  A
C682        H687   1.046       .  S
C684        C685   1.413       .  A
C684        H688   1.084       .  S
C685        C686   1.412       .  A
C686        H689   1.084       .  S
C690        C696   1.589       .  S
C691        C694   1.629       .  S
C692        C725   1.468       .  S
C692        C693   1.390       .  A
C692        C697   1.389       .  A
C693        C694   1.427       .  A
C693        H698   1.068       .  S
C694        C695   1.435       .  A
C695        C696   1.449       .  A
C695        H699   1.080       .  S
C696        C697   1.409       .  A
C697        H700   1.082       .  S
O701        V709   1.875       .  S
O701        C711   1.259       .  A
O702        V709   1.727       .  S
O702        C712   1.210       .  A
O703        V709   1.923       .  S
O703        C713   1.272       .  A
O704        V709   1.964       .  S
O704        C714   1.295       .  A
O705        V710   1.958       .  S
O705        C714   1.270       .  A
O706        V710   1.902       .  S
O706        C713   1.288       .  A
O707        V710   1.745       .  S
O707        C712   1.232       .  A
O708        V710   1.917       .  S
O708        C711   1.267       .  A
V709        V710   2.082       .  T
C712        C726   1.264   1_455  S
C713        C780   1.673       .  S
C714        C779   1.674       .  S
O715        V723   1.906       .  S
O715        C725   1.263       .  A
O716        V723   1.738       .  S
O716        C726   1.227       .  A
O717        V723   1.915       .  S
O717        C727   1.288       .  A
O718        V723   1.974       .  S
O718        C728   1.284       .  A
O719        V724   1.972       .  S
O719        C728   1.293       .  A
O720        V724   1.912       .  S
O720        C727   1.265       .  A
O721        V724   1.747       .  S
O721        C726   1.219       .  A
O722        V724   1.885       .  S
O722        C725   1.262       .  A
V723        V724   2.082       .  T
C727        C729   1.672       .  S
C728        C730   1.691       .  S
C729        C735   1.591       .  S
C729        C740   1.712       .  S
C729        C779   1.797   1_655  S
C730        C733   1.621       .  S
C730        C741   1.664       .  S
C730        C780   1.802   1_655  S
C731        C732   1.391       .  A
C732        C733   1.412       .  A
C732        H737   1.084       .  S
C733        C734   1.413       .  A
C734        H738   1.084       .  S
C735        C736   1.430   1_556  A
C736        H739   1.046   1_554  S
C740        C746   1.589       .  S
C740        C777   1.713       .  S
C740        C790   1.786   1_655  S
C741        C744   1.629       .  S
C741        C778   1.656       .  S
C741        C791   1.776   1_655  S
C742        C743   1.390       .  A
C743        C744   1.427       .  A
C743        H748   1.068       .  S
C744        C745   1.435       .  A
C745        H749   1.080       .  S
C746        C747   1.408       .  A
C747        H750   1.082       .  S
O751        V759   1.866       .  S
O752        V759   1.731       .  S
O753        V759   1.978       .  S
O754        V759   1.920       .  S
O754        C764   1.275       .  A
O755        V760   1.919       .  S
O756        V760   1.966       .  S
O756        C763   1.271       .  A
O757        V760   1.741       .  S
O757        C762   1.231       .  A
O758        V760   1.930       .  S
O758        C761   1.269       .  A
C762        C776   1.265   1_455  S
C763        C791   1.691       .  S
C764        C790   1.658       .  S
O765        V773   1.923       .  S
O766        V773   1.734       .  S
O767        V773   1.983       .  S
O767        C777   1.287       .  A
O768        V773   1.932       .  S
O769        V774   1.910       .  S
O769        C778   1.269       .  A
O770        V774   1.984       .  S
O771        V774   1.744       .  S
O771        C776   1.224       .  A
O772        V774   1.875       .  S
O772        C775   1.260       .  A
C779        C785   1.620       .  S
C779        C790   1.659       .  S
C780        C783   1.597       .  S
C780        C791   1.706       .  S
C781        C782   1.404       .  A
C782        C783   1.438       .  A
C782        H787   1.049       .  S
C783        C784   1.449       .  A
C784        H788   1.083       .  S
C785        C786   1.407       .  A
C786        H789   1.083       .  S
C790        C796   1.630       .  S
C791        C794   1.580       .  S
C792        C793   1.384       .  A
C793        C794   1.403       .  A
C793        H798   1.079       .  S
C794        C795   1.447       .  A
C795        H799   1.080   1_455  S
C796        C797   1.435       .  A
C797        H800   1.068       .  S
