geometry optimzed in LAMMPS
_audit_creation_date              2020-12-01 
_audit_creation_method            'lammps2cif' 
_symmetry_space_group_name_H-M    'P1' 
_symmetry_Int_Tables_number       1 
_symmetry_cell_setting            triclinic 
loop_ 
_symmetry_equiv_pos_as_xyz 
  x,y,z 
_cell_length_a                    40.39985477 
_cell_length_b                    40.69178169529099 
_cell_length_c                    41.38390238203645 
_cell_angle_alpha                 90.58566005554698 
_cell_angle_beta                  89.6744684718661 
_cell_angle_gamma                 89.83058398784074 
loop_ 
_atom_site_label 
_atom_site_type_symbol 
_atom_site_fract_x 
_atom_site_fract_y 
_atom_site_fract_z 
_atom_site_charge 
O1          O  0.33693484  0.24276144  0.59073043    -0.54900
C2          C  0.34246155  0.31929317  0.53868482     0.77700
O3          O  0.31876168  0.35103662  0.61582126    -0.56100
C4          C  0.33255646  0.23363606  0.61964944     0.77700
C5          C  0.41532543  0.31785344  0.63440559     0.80100
Cd6        Cd  0.35146512  0.30054182  0.60524223     1.37500
O7          O  0.34588816  0.28916449  0.54550175    -0.54900
O8          O  0.38791127  0.32039958  0.64907281    -0.53700
C9          C  0.29201375  0.33695258  0.62339206     0.80000
O10         O  0.41411595  0.30649404  0.60579260    -0.56100
O11         O  0.34768868  0.33957151  0.56141880    -0.54600
O12         O  0.34065942  0.25396059  0.64153795    -0.54500
O13         O  0.29356965  0.30616459  0.62653806    -0.53700
C14         C  0.17138709  0.43825963  0.54020374     0.32900
C15         C  0.13625398  0.41797254  0.59335008     0.32900
C16         C  0.14386458  0.41291932  0.53437067    -0.03300
C17         C  0.19183122  0.42166419  0.56702180    -0.04100
C18         C  0.15326244  0.46566000  0.55917663    -0.04000
C19         C  0.12536499  0.40300299  0.56090576    -0.03300
C20         C  0.17375134  0.41060394  0.59373427    -0.04100
C21         C  0.13558430  0.45540377  0.58698361    -0.04000
C22         C  0.10655746  0.37616280  0.55099366    -0.29400
N23         N  0.11403209  0.36946175  0.51952657     0.17100
C24         C  0.13739470  0.39098395  0.50978080    -0.29400
H25         H  0.15077177  0.38884910  0.48726507     0.19100
C26         C  0.19578260  0.39554246  0.61444846    -0.28300
N27         N  0.22664100  0.39834530  0.60158947     0.15900
C28         C  0.22448955  0.41494719  0.57349862    -0.28300
C29         C  0.14357118  0.96929055  0.60796182    -0.28600
N30         N  0.15562278  0.99670171  0.59377369     0.16400
H31         H  0.13960100  0.96703662  0.63371192     0.19000
C32         C  0.16421394  0.98873577  0.56310386    -0.28600
H33         H  0.17990243  0.00368779  0.54792115     0.19000
H34         H  0.24571294  0.42202749  0.55967829     0.19000
H35         H  0.09115511  0.36092584  0.56615281     0.19100
H36         H  0.18993995  0.38385828  0.63714416     0.19000
C37         C  0.23070064  0.43545243  0.46405321     0.32900
C38         C  0.25872379  0.40957801  0.40870595     0.32900
C39         C  0.25517528  0.40663945  0.46794949    -0.03300
C40         C  0.20621469  0.42165702  0.43870661    -0.04100
C41         C  0.25101773  0.46010133  0.44351917    -0.04000
C42         C  0.26956789  0.39361624  0.44018237    -0.03300
C43         C  0.22077495  0.40818185  0.41090116    -0.04100
C44         C  0.26521045  0.44672146  0.41462981    -0.04000
C45         C  0.29558295  0.37350954  0.44968779    -0.29400
N46         N  0.29660073  0.37373781  0.48243727     0.17100
C47         C  0.27244693  0.39398285  0.49352617    -0.29400
H48         H  0.26990921  0.40106964  0.51843659     0.19100
C49         C  0.19575803  0.39755333  0.39085373    -0.28300
N50         N  0.16637355  0.40445731  0.40539935     0.15900
C51         C  0.17242510  0.41971290  0.43397082    -0.28300
C52         C  0.27368268  0.97294222  0.39485665    -0.28600
N53         N  0.26236390  0.00022648  0.41053921     0.16400
H54         H  0.27809846  0.97165045  0.36904460     0.19000
C55         C  0.25264686  0.99108377  0.44048425    -0.28600
H56         H  0.23720061  0.00586926  0.45639947     0.19000
H57         H  0.15286602  0.42815487  0.44971047     0.19000
H58         H  0.31428109  0.36245967  0.43422135     0.19100
H59         H  0.19875279  0.38555336  0.36760700     0.19000
O60         O  0.07248958  0.24151250  0.40553139    -0.54900
C61         C  0.06400320  0.31680510  0.46323788     0.77700
O62         O  0.07657762  0.35457445  0.39581575    -0.56100
C63         C  0.08425112  0.23728527  0.37726587     0.77700
C64         C  0.98760229  0.30463655  0.36918149     0.80100
Cd65       Cd  0.05389827  0.29923387  0.39585032     1.37500
O66         O  0.08604208  0.30329348  0.44581485    -0.54900
O67         O  0.99709886  0.27930641  0.38404645    -0.53700
C68         C  0.09989163  0.34847713  0.37615597     0.80000
O69         O  0.00846819  0.32760129  0.36668652    -0.56100
O70         O  0.03510098  0.31738826  0.45150326    -0.54600
O71         O  0.07966021  0.26035092  0.35751843    -0.54500
O72         O  0.09892159  0.32110831  0.36145849    -0.53700
O73         O  0.16112261  0.16659909  0.35546295    -0.54900
C74         C  0.24717635  0.17110831  0.31351985     0.77700
O75         O  0.26308469  0.18748010  0.39789171    -0.56100
C76         C  0.14896721  0.17056719  0.38359604     0.77700
C77         C  0.23582885  0.08989361  0.39895781     0.80100
Cd78       Cd  0.21776957  0.15462089  0.37484535     1.37500
O79         O  0.21677990  0.16328938  0.31444273    -0.54900
O80         O  0.22910788  0.09373029  0.36935299    -0.53700
C81         C  0.24622523  0.21360878  0.40105533     0.80000
O82         O  0.23313284  0.11511776  0.41684881    -0.56100
O83         O  0.26326420  0.16790302  0.33934260    -0.54600
O84         O  0.16706707  0.16231743  0.40702999    -0.54500
O85         O  0.21538944  0.21099031  0.39735199    -0.53700
C86         C  0.33268346  0.27697302  0.21376074     0.32900
C87         C  0.31184593  0.24169440  0.16059635     0.32900
C88         C  0.30455268  0.25225141  0.21961344    -0.03300
C89         C  0.31908553  0.29692865  0.18556065    -0.04100
C90         C  0.35941771  0.25588050  0.19698211    -0.04000
C91         C  0.29417985  0.23399352  0.19278144    -0.03300
C92         C  0.30802468  0.27931898  0.15881569    -0.04100
C93         C  0.34919376  0.23807935  0.16907877    -0.04000
C94         C  0.27074444  0.21180250  0.20366983    -0.29400
N95         N  0.26703721  0.21610488  0.23609352     0.17100
C96         C  0.28672739  0.24125740  0.24574044    -0.29400
H97         H  0.28812531  0.25006967  0.27039124     0.19100
C98         C  0.29518925  0.30199376  0.13747559    -0.28300
N99         N  0.29896109  0.33253548  0.15057288     0.15900
C100        C  0.31374611  0.32963925  0.17963891    -0.28300
C101        C  0.37704030  0.23679216  0.14913190    -0.28600
N102        N  0.40330444  0.25085950  0.16433752     0.16400
H103        H  0.37720175  0.22908325  0.12401733     0.19000
C104        C  0.39244383  0.26307099  0.19304489    -0.28600
H105        H  0.40618204  0.28008326  0.20806916     0.19000
H106        H  0.31885741  0.35004255  0.19580502     0.19000
H107        H  0.25875271  0.19280390  0.18954311     0.19100
H108        H  0.28356954  0.29674924  0.11452632     0.19000
C109        C  0.33348993  0.31784686  0.29941348     0.32900
C110        C  0.31587848  0.36376632  0.34528965     0.32900
C111        C  0.30724920  0.34328458  0.28955731    -0.03300
C112        C  0.31875778  0.30446517  0.33065234    -0.04100
C113        C  0.36232384  0.33893766  0.31243457    -0.04000
C114        C  0.29899118  0.36722965  0.31230775    -0.03300
C115        C  0.30920430  0.32755227  0.35399882    -0.04100
C116        C  0.35321161  0.36280876  0.33621157    -0.04000
C117        C  0.27458157  0.38677561  0.29883837    -0.29400
N118        N  0.26741012  0.37447137  0.26902220     0.17100
C119        C  0.28662507  0.34761847  0.26360404    -0.29400
H120        H  0.28505291  0.33200040  0.24240923     0.19100
C121        C  0.29791501  0.31008245  0.38040265    -0.28300
N122        N  0.30159819  0.27749970  0.37360358     0.15900
C123        C  0.31429246  0.27391488  0.34345616    -0.28300
C124        C  0.38048948  0.36653378  0.35607133    -0.28600
N125        N  0.40535552  0.34649193  0.34584972     0.16400
H126        H  0.38086471  0.38020492  0.37864142     0.19000
C127        C  0.39428596  0.32909194  0.31993841    -0.28600
H128        H  0.40735439  0.30862449  0.30882543     0.19000
H129        H  0.31979742  0.25056834  0.33182713     0.19000
H130        H  0.26221631  0.40750871  0.31023963     0.19100
H131        H  0.28841442  0.32006265  0.40291071     0.19000
O132        O  0.13658594  0.43369506  0.16657668    -0.54900
C133        C  0.21707822  0.42870336  0.21375319     0.77700
O134        O  0.24871973  0.42158390  0.13748956    -0.56100
C135        C  0.12703127  0.42587072  0.13841478     0.77700
C136        C  0.20971747  0.50848751  0.12196424     0.80100
Cd137      Cd  0.19446227  0.44521666  0.14960732     1.37500
O138        O  0.21527126  0.45865353  0.20566067    -0.54900
O139        O  0.21349578  0.48156521  0.10692367    -0.53700
C140        C  0.23779330  0.39518481  0.12515992     0.80000
O141        O  0.19827191  0.50688201  0.15052295    -0.56100
O142        O  0.20518171  0.40809943  0.19403027    -0.54600
O143        O  0.14685432  0.43168755  0.11550773    -0.54500
O144        O  0.20713549  0.39412556  0.11938746    -0.53700
O145        O  0.34807658  0.34889306  0.92066481    -0.54900
C146        C  0.35648827  0.26431053  0.96363457     0.77700
O147        O  0.33979162  0.24056698  0.88158359    -0.56100
C148        C  0.33398465  0.35854302  0.89512005     0.77700
C149        C  0.42918184  0.28773027  0.86651473     0.80100
Cd150      Cd  0.36404684  0.29327753  0.89949241     1.37500
O151        O  0.36106245  0.29501800  0.96089199    -0.54900
O152        O  0.42715892  0.29106287  0.89694408    -0.53700
C153        C  0.31062236  0.25161580  0.87928362     0.80000
O154        O  0.40193282  0.28808534  0.85168245    -0.56100
O155        O  0.35909181  0.24763241  0.93781751    -0.54600
O156        O  0.33665424  0.33966908  0.87070625    -0.54500
O157        O  0.30716852  0.28244224  0.88131433    -0.53700
C158        C  0.18585520  0.18050955  0.96678288     0.32900
C159        C  0.13975129  0.19632462  0.92113334     0.32900
C160        C  0.15776958  0.20342144  0.97758703    -0.03300
C161        C  0.19910826  0.19753419  0.93667764    -0.04100
C162        C  0.16741245  0.15084130  0.95192943    -0.04000
C163        C  0.13405327  0.21104923  0.95488738    -0.03300
C164        C  0.17589432  0.20612642  0.91357101    -0.04100
C165        C  0.14319161  0.15902305  0.92826939    -0.04000
C166        C  0.11217843  0.23306818  0.96936121    -0.29400
N167        N  0.12296596  0.23934482  0.99977247     0.17100
C168        C  0.15097835  0.22190867  0.00475408    -0.29400
H169        H  0.16582912  0.22351366  0.02630886     0.19100
C170        C  0.19297121  0.22209897  0.88929131    -0.28300
N171        N  0.22558748  0.22246043  0.89690938     0.15900
C172        C  0.22953930  0.20769123  0.92589597    -0.28300
C173        C  0.14140788  0.13225909  0.90747153    -0.28600
N174        N  0.16303565  0.10881872  0.91698596     0.16400
H175        H  0.12777539  0.13129979  0.88504341     0.19000
C176        C  0.17965872  0.12023010  0.94309351    -0.28600
H177        H  0.20094577  0.10817340  0.95346899     0.19000
H178        H  0.25267464  0.20582705  0.93879966     0.19000
H179        H  0.09100845  0.24476651  0.95840346     0.19100
H180        H  0.18266354  0.23298763  0.86784615     0.19000
C181        C  0.23895155  0.15862470  0.04348516     0.32900
C182        C  0.27406692  0.17827143  0.09691667     0.32900
C183        C  0.27216465  0.17542431  0.03702036    -0.03300
C184        C  0.22132228  0.18263448  0.06667942    -0.04100
C185        C  0.24890262  0.13069702  0.06636173    -0.04000
C186        C  0.28988932  0.18625061  0.06372853    -0.03300
C187        C  0.23903582  0.19296187  0.09389970    -0.04100
C188        C  0.26677287  0.14056793  0.09392378    -0.04000
C189        C  0.31680585  0.20381697  0.05167506    -0.29400
N190        N  0.31573094  0.20273667  0.01871924     0.17100
C191        C  0.28892713  0.18505335  0.00982295    -0.29400
H192        H  0.28162278  0.18040275  0.98508410     0.19100
C193        C  0.21574754  0.20267050  0.11689790    -0.28300
N194        N  0.18502425  0.19868356  0.10433498     0.15900
C195        C  0.18830842  0.18522535  0.07453625    -0.28300
C196        C  0.26507218  0.11433603  0.11508059    -0.28600
N197        N  0.24818744  0.08892105  0.10103702     0.16400
H198        H  0.27364718  0.11455040  0.13981131     0.19000
C199        C  0.23781956  0.09901146  0.07147368    -0.28600
H200        H  0.22096595  0.08556960  0.05604574     0.19000
H201        H  0.16795522  0.17597110  0.06020459     0.19000
H202        H  0.33550800  0.21640248  0.06569459     0.19100
H203        H  0.22077149  0.20951804  0.14171428     0.19000
O204        O  0.06129208  0.34676606  0.11929107    -0.54900
C205        C  0.06692897  0.27410365  0.06341861     0.77700
O206        O  0.09054042  0.23519535  0.13213935    -0.56100
C207        C  0.07031906  0.35501497  0.14751754     0.77700
C208        C  0.99602936  0.26742004  0.15900961     0.80100
Cd209      Cd  0.05871533  0.28701506  0.13121084     1.37500
O210        O  0.08416466  0.29515086  0.07840859    -0.54900
O211        O  0.02251357  0.26631756  0.17517147    -0.53700
C212        C  0.11686262  0.24769068  0.14309029     0.80000
O213        O  0.99844938  0.27787723  0.13040121    -0.56100
O214        O  0.04250974  0.26221778  0.07855202    -0.54600
O215        O  0.07030612  0.33266585  0.16849684    -0.54500
O216        O  0.11476114  0.27689784  0.15345752    -0.53700
O217        O  0.26120737  0.15970938  0.64469166    -0.54900
C218        C  0.19126558  0.15977734  0.70273490     0.77700
O219        O  0.14765323  0.17592542  0.63959906    -0.56100
C220        C  0.26734081  0.16777815  0.61577957     0.77700
C221        C  0.18136532  0.08554740  0.60834418     0.80100
Cd222      Cd  0.20135900  0.14809446  0.63509903     1.37500
O223        O  0.20853180  0.17834804  0.68511129    -0.54900
O224        O  0.19677174  0.08692453  0.63492998    -0.53700
C225        C  0.15567251  0.20045895  0.62287861     0.80000
O226        O  0.17648342  0.11246825  0.59415784    -0.56100
O227        O  0.18242692  0.13259520  0.69035518    -0.54600
O228        O  0.24468354  0.16238728  0.59549496    -0.54500
O229        O  0.18279123  0.19850644  0.60765626    -0.53700
C230        C  0.09678420  0.28074667  0.79665729     0.32900
C231        C  0.10892738  0.23289287  0.84125569     0.32900
C232        C  0.11993870  0.25274789  0.78617481    -0.03300
C233        C  0.11233213  0.29233097  0.82836413    -0.04100
C234        C  0.06557670  0.26236888  0.80877050    -0.04000
C235        C  0.12570936  0.22823340  0.80830719    -0.03300
C236        C  0.11907801  0.26818597  0.85099217    -0.04100
C237        C  0.07199045  0.23753359  0.83216923    -0.04000
C238        C  0.14799385  0.20634759  0.79426316    -0.29400
N239        N  0.15619470  0.21778308  0.76462403     0.17100
C240        C  0.13971393  0.24627357  0.75974694    -0.29400
H241        H  0.14242783  0.26138413  0.73858342     0.19100
C242        C  0.13379274  0.28381707  0.87702933    -0.28300
N243        N  0.13515349  0.31648597  0.87089847     0.15900
C244        C  0.12231380  0.32187969  0.84116443    -0.28300
C245        C  0.54282116  0.24345996  0.85319145    -0.28600
N246        N  0.51877566  0.26448159  0.84350872     0.16400
H247        H  0.54294509  0.23139591  0.87637740     0.19000
C248        C  0.52943817  0.27909151  0.81590594    -0.28600
H249        H  0.51767065  0.30024453  0.80521819     0.19000
H250        H  0.12160178  0.34541511  0.82921473     0.19000
H251        H  0.15828322  0.18444480  0.80492849     0.19100
H252        H  0.14313829  0.27247393  0.89867376     0.19000
C253        C  0.08030612  0.33366810  0.71896828     0.32900
C254        C  0.10228489  0.36113706  0.66268451     0.32900
C255        C  0.10236152  0.36416968  0.72243351    -0.03300
C256        C  0.10033302  0.31110809  0.69635319    -0.04100
C257        C  0.05278239  0.34608850  0.69630288    -0.04000
C258        C  0.11425722  0.37769802  0.69398395    -0.03300
C259        C  0.11157227  0.32497802  0.66768267    -0.04100
C260        C  0.06414288  0.36051238  0.66716699    -0.04000
C261        C  0.13575538  0.40270636  0.70257264    -0.29400
N262        N  0.13605932  0.40525179  0.73533643     0.17100
C263        C  0.11575610  0.38183950  0.74757844    -0.29400
H264        H  0.11223848  0.37706159  0.77304789     0.19100
C265        C  0.11726431  0.29930457  0.64623136    -0.28300
N266        N  0.11060227  0.27058904  0.66123086     0.15900
C267        C  0.09901501  0.27766581  0.69120902    -0.28300
C268        C  0.52992102  0.36213217  0.64039151    -0.28600
N269        N  0.50427550  0.34478413  0.65298249     0.16400
H270        H  0.53204613  0.36882570  0.61521985     0.19000
C271        C  0.51258393  0.33596431  0.68342940    -0.28600
H272        H  0.49927028  0.31814389  0.69769670     0.19000
H273        H  0.08903195  0.25974868  0.70776410     0.19000
H274        H  0.15041526  0.41753886  0.68635275     0.19100
H275        H  0.12378390  0.30154251  0.62098474     0.19000
O276        O  0.25655473  0.43378780  0.84355006    -0.54900
C277        C  0.16733740  0.44774611  0.81007010     0.77700
O278        O  0.15234599  0.42877679  0.89129727    -0.56100
C279        C  0.26916495  0.42237115  0.86914763     0.77700
C280        C  0.19956528  0.51858783  0.89886453     0.80100
Cd281      Cd  0.20392900  0.45297128  0.86955006     1.37500
O282        O  0.19876248  0.44836936  0.80888929    -0.54900
O283        O  0.20155248  0.49284992  0.91565340    -0.53700
C284        C  0.16360302  0.39979447  0.89200934     0.80000
O285        O  0.20241861  0.51455171  0.86859502    -0.56100
O286        O  0.15412539  0.45294641  0.83732230    -0.54600
O287        O  0.25363540  0.42855492  0.89522515    -0.54500
O288        O  0.19441710  0.39649496  0.88785861    -0.53700
C289        C  0.14605786  0.43845287  0.78265735    -0.13500
C290        C  0.15734916  0.42585513  0.75458323    -0.28700
H291        H  0.11971890  0.43671793  0.78784742     0.15500
H292        H  0.18333796  0.42785722  0.74806472     0.16100
C293        C  0.15313304  0.34055492  0.88924671    -0.13500
C294        C  0.14129241  0.37128534  0.89251933    -0.28700
H295        H  0.17880200  0.33525569  0.89498245     0.15500
H296        H  0.11531553  0.37588417  0.88754730     0.16100
C297        C  0.07144287  0.31618149  0.75064061    -0.13500
C298        C  0.09633818  0.30695173  0.77044902    -0.28700
H299        H  0.04639108  0.30766714  0.75463925     0.15500
H300        H  0.12090477  0.31615398  0.76477814     0.16100
C301        C  0.17901552  0.17110860  0.73463637    -0.13500
C302        C  0.17841751  0.20354900  0.74122331    -0.28700
H303        H  0.16502493  0.15424536  0.74956797     0.15500
H304        H  0.19024967  0.22031551  0.72446902     0.16100
C305        C  0.11677311  0.23769791  0.64964492    -0.13500
C306        C  0.13679987  0.23138879  0.62424447    -0.28700
H307        H  0.10995189  0.21764639  0.66551090     0.15500
H308        H  0.14515811  0.25115919  0.60887709     0.16100
C309        C  0.14921336  0.23079742  0.14039511    -0.13500
C310        C  0.15333206  0.20640385  0.11858731    -0.28700
H311        H  0.17068650  0.24274235  0.15085283     0.15500
H312        H  0.13156924  0.19628580  0.10680834     0.16100
C313        C  0.16786576  0.07749219  0.90111634    -0.13500
C314        C  0.19819829  0.06549319  0.89416116    -0.28700
H315        H  0.14613690  0.06381521  0.89353587     0.15500
H316        H  0.19565709  0.55321289  0.94018172     0.16100
C317        C  0.10928285  0.26171007  0.02327208    -0.13500
C318        C  0.07704047  0.26134752  0.03135505    -0.28700
H319        H  0.12662162  0.27429044  0.03911223     0.15500
H320        H  0.05995342  0.24610632  0.01771378     0.16100
C321        C  0.11917792  0.20604585  0.86487466    -0.13500
C322        C  0.11439184  0.20890879  0.89684583    -0.28700
H323        H  0.13707725  0.18783528  0.85668346     0.15500
H324        H  0.09639626  0.22696710  0.90515138     0.16100
C325        C  0.21126841  0.17763097  0.99366868    -0.13500
C326        C  0.21837652  0.15188772  0.01302246    -0.28700
H327        H  0.22230898  0.20115238  0.00003628     0.15500
H328        H  0.20770802  0.12784977  0.00869398     0.16100
C329        C  0.31305796  0.38872552  0.89500329    -0.13500
C330        C  0.29865671  0.40033742  0.86803573    -0.28700
H331        H  0.30620919  0.39925703  0.91833342     0.15500
H332        H  0.30596709  0.39031899  0.84462276     0.16100
C333        C  0.46109582  0.28338863  0.84854489    -0.13500
C334        C  0.48917137  0.27217063  0.86223273    -0.28700
H335        H  0.46067901  0.28704784  0.82260221     0.15500
H336        H  0.48878198  0.26611237  0.88774731     0.16100
C337        C  0.34592565  0.24879120  0.99456962    -0.13500
C338        C  0.33801476  0.21658582  0.99516760    -0.28700
H339        H  0.33986178  0.26447243  0.01516180     0.15500
H340        H  0.34258456  0.20190601  0.97349679     0.16100
C341        C  0.28201154  0.22931604  0.87898202    -0.13500
C342        C  0.25085513  0.24083374  0.88065168    -0.28700
H343        H  0.28667334  0.20366664  0.88447989     0.15500
H344        H  0.24549976  0.26613118  0.87428109     0.16100
C345        C  0.08384367  0.38776540  0.15545999    -0.13500
C346        C  0.09654310  0.40696140  0.13228860    -0.28700
H347        H  0.09115161  0.39188791  0.18040922     0.15500
H348        H  0.09059058  0.40179018  0.10716928     0.16100
C349        C  0.22901316  0.03108759  0.10159876    -0.13500
C350        C  0.23909721  0.05869325  0.11736731    -0.28700
H351        H  0.22084819  0.53871155  0.07984023     0.15500
H352        H  0.24109536  0.05812775  0.14352742     0.16100
C353        C  0.24360172  0.38596695  0.24591843    -0.13500
C354        C  0.23438412  0.41772213  0.24330854    -0.28700
H355        H  0.23612963  0.36863686  0.22717485     0.15500
H356        H  0.24325245  0.43597451  0.26046820     0.16100
C357        C  0.43547283  0.25706007  0.15004503    -0.13500
C358        C  0.46209878  0.26447636  0.16836535    -0.28700
H359        H  0.43827978  0.25509853  0.12396918     0.09100
H360        H  0.96182461  0.25628578  0.19922644     0.16100
C361        C  0.29833951  0.22404567  0.13040130    -0.13500
C362        C  0.29318255  0.19129760  0.12645825    -0.28700
H363        H  0.28972820  0.23965892  0.11106873     0.15500
H364        H  0.30095805  0.17438003  0.14505598     0.16100
C365        C  0.25863059  0.36556276  0.12181085    -0.13500
C366        C  0.28646064  0.36339002  0.13924200    -0.28700
H367        H  0.24749928  0.34354489  0.11166820     0.15500
H368        H  0.29601342  0.38549938  0.15081865     0.16100
C369        C  0.34396782  0.29921282  0.24193651    -0.13500
C370        C  0.34108417  0.29161045  0.27347112    -0.28700
H371        H  0.34767938  0.32497425  0.23656163     0.15500
H372        H  0.33881294  0.26602414  0.27989568     0.16100
C373        C  0.26393813  0.18541898  0.28526471    -0.13500
C374        C  0.24910172  0.19520426  0.25796751    -0.28700
H375        H  0.28989203  0.19149595  0.28857779     0.15500
H376        H  0.22360096  0.18866671  0.25291240     0.16100
C377        C  0.29288269  0.24990759  0.39309966    -0.13500
C378        C  0.26174247  0.24626240  0.40375537    -0.28700
H379        H  0.30819013  0.22803924  0.39014619     0.15500
H380        H  0.24544902  0.26755067  0.40457982     0.16100
C381        C  0.11712014  0.18762975  0.38963885    -0.13500
C382        C  0.10477681  0.20853603  0.36779815    -0.28700
H383        H  0.10818626  0.18884159  0.41443831     0.15500
H384        H  0.11485534  0.20835104  0.34338863     0.16100
C385        C  0.45489744  0.31544823  0.36204417    -0.13500
C386        C  0.43707210  0.34360347  0.36178244    -0.28700
H387        H  0.94048389  0.28415544  0.35121299     0.15500
H388        H  0.44636673  0.36491911  0.37486271     0.16100
C389        C  0.25451468  0.03120665  0.39536949    -0.13500
C390        C  0.24593432  0.05806482  0.41293689    -0.28700
H391        H  0.25531845  0.03267651  0.36917591     0.15500
H392        H  0.24689762  0.05718206  0.43909388     0.16100
C393        C  0.27249157  0.39222202  0.37865042    -0.13500
C394        C  0.30486118  0.38870306  0.37112253    -0.28700
H395        H  0.25502278  0.37850223  0.36405202     0.15500
H396        H  0.32326822  0.40218188  0.38485363     0.16100
C397        C  0.13387033  0.39350747  0.39627201    -0.13500
C398        C  0.12890340  0.37014049  0.37360511    -0.28700
H399        H  0.11346310  0.40025553  0.41228842     0.15500
H400        H  0.14891062  0.36227090  0.35774273     0.16100
C401        C  0.16521703  0.02661105  0.61019004    -0.13500
C402        C  0.16987689  0.05453937  0.59362304    -0.28700
H403        H  0.16859735  0.02646995  0.63621827     0.15500
H404        H  0.16399744  0.05510252  0.56806981     0.16100
C405        C  0.10443057  0.34170478  0.49990021    -0.13500
C406        C  0.07255087  0.33433893  0.49378581    -0.28700
H407        H  0.12344800  0.33120844  0.48418551     0.15500
H408        H  0.05299947  0.34651211  0.50752065     0.16100
C409        C  0.11669183  0.40646062  0.62284979    -0.13500
C410        C  0.11697958  0.37466515  0.63150642    -0.28700
H411        H  0.10347179  0.42430445  0.63776697     0.15500
H412        H  0.13100763  0.35780228  0.61621111     0.16100
C413        C  0.21834072  0.44666443  0.49794429    -0.13500
C414        C  0.18631783  0.44863979  0.50739634    -0.28700
H415        H  0.23700867  0.44836770  0.51632663     0.15500
H416        H  0.16832325  0.45534932  0.48957637     0.16100
C417        C  0.31555775  0.20262889  0.62806199    -0.13500
C418        C  0.29747849  0.18596137  0.60617313    -0.28700
H419        H  0.31189970  0.19780698  0.65361230     0.15500
H420        H  0.30007869  0.19183601  0.58072927     0.16100
C421        C  0.44650122  0.32750185  0.65083548    -0.13500
C422        C  0.47520559  0.33414884  0.63541837    -0.28700
H423        H  0.44518267  0.33089438  0.67686686     0.15500
H424        H  0.47610490  0.33325200  0.60918120     0.16100
C425        C  0.32950475  0.33047961  0.50710803    -0.13500
C426        C  0.32273061  0.36256316  0.50303856    -0.28700
H427        H  0.31977269  0.31238098  0.49022451     0.15500
H428        H  0.33129351  0.38000335  0.52120954     0.16100
C429        C  0.25748738  0.38530355  0.61315641    -0.13500
C430        C  0.26004013  0.35486854  0.62527731    -0.28700
H431        H  0.27997606  0.39773919  0.60558999     0.15500
H432        H  0.23777887  0.34109378  0.63085026     0.16100
O433        O  0.34811307  0.74103214  0.58704528    -0.54900
C434        C  0.34418143  0.81552787  0.53536995     0.77700
O435        O  0.33477652  0.85315739  0.60638652    -0.56100
C436        C  0.33424880  0.73443362  0.61373808     0.77700
C437        C  0.42955326  0.80917900  0.62163888     0.80100
Cd438      Cd  0.36111682  0.79879012  0.60098902     1.37500
O439        O  0.34431275  0.78573112  0.54395732    -0.54900
O440        O  0.42240322  0.79978791  0.59332986    -0.53700
C441        C  0.30978962  0.84351372  0.62212796     0.80000
O442        O  0.40545703  0.81223562  0.64109800    -0.56100
O443        O  0.35564169  0.83606631  0.55549807    -0.54600
O444        O  0.33618253  0.75615662  0.63581188    -0.54500
O445        O  0.31073338  0.81431618  0.63220401    -0.53700
C446        C  0.17963544  0.93243902  0.53807383     0.32900
C447        C  0.15032324  0.90659275  0.59151207     0.32900
C448        C  0.15717878  0.90270176  0.53252279    -0.03300
C449        C  0.20373910  0.92004432  0.56427300    -0.04100
C450        C  0.15729282  0.95622647  0.55713021    -0.04000
C451        C  0.14155679  0.88960459  0.55929370    -0.03300
C452        C  0.18848226  0.90598811  0.59104279    -0.04100
C453        C  0.14291504  0.94344212  0.58570945    -0.04000
C454        C  0.12386331  0.86237544  0.54837544    -0.29400
N455        N  0.12928270  0.85884638  0.51597076     0.17100
C456        C  0.14988592  0.88303688  0.50637831    -0.29400
H457        H  0.15949820  0.88557378  0.48210995     0.19100
C458        C  0.21308956  0.89449753  0.61110402    -0.28300
N459        N  0.24283378  0.90200289  0.59779445     0.15900
C460        C  0.23738473  0.91862060  0.57014798    -0.28300
C461        C  0.13766448  0.48120428  0.60902056    -0.28600
N462        N  0.15434376  0.50658008  0.59570801     0.16400
H463        H  0.13082331  0.48006017  0.63431392     0.19000
C464        C  0.16452482  0.49700572  0.56579495    -0.28600
H465        H  0.18281967  0.50981489  0.55151422     0.19000
H466        H  0.25723150  0.92859255  0.55598385     0.19000
H467        H  0.10925372  0.84585091  0.56289085     0.19100
H468        H  0.20965790  0.88116533  0.63331554     0.19000
C469        C  0.23443161  0.93414521  0.46183718     0.32900
C470        C  0.26256872  0.91028083  0.40643345     0.32900
C471        C  0.25519454  0.90278321  0.46500375    -0.03300
C472        C  0.20984388  0.92498238  0.43476953    -0.04100
C473        C  0.25811570  0.95794256  0.44452016    -0.04000
C474        C  0.27016565  0.89065012  0.43711964    -0.03300
C475        C  0.22455525  0.91263103  0.40667268    -0.04100
C476        C  0.27237666  0.94597493  0.41518981    -0.04000
C477        C  0.29633812  0.87088908  0.44725351    -0.29400
N478        N  0.29581929  0.86939010  0.47993471     0.17100
C479        C  0.27112683  0.88895041  0.49078440    -0.29400
H480        H  0.26743189  0.89508173  0.51581759     0.19100
C481        C  0.19972917  0.90548708  0.38500055    -0.28300
N482        N  0.17029797  0.91311831  0.39905152     0.15900
C483        C  0.17613580  0.92532404  0.42900497    -0.28300
C484        C  0.26554904  0.47205974  0.39249791    -0.28600
N485        N  0.25375252  0.50014221  0.40635362     0.16400
H486        H  0.27075869  0.46921632  0.36692626     0.19000
C487        C  0.24403743  0.49285723  0.43696912    -0.28600
H488        H  0.22903204  0.50888980  0.45211601     0.19000
H489        H  0.15635548  0.93234048  0.44516017     0.19000
H490        H  0.31643602  0.86135070  0.43259982     0.19100
H491        H  0.20276669  0.89477647  0.36118372     0.19000
O492        O  0.08558380  0.74721123  0.38622143    -0.54900
C493        C  0.07656835  0.81611497  0.45442971     0.77700
O494        O  0.08375034  0.86127014  0.38996567    -0.56100
C495        C  0.09931962  0.74911995  0.35857835     0.77700
C496        C  0.99444046  0.81238334  0.36405070     0.80100
Cd497      Cd  0.06316337  0.80532357  0.38571153     1.37500
O498        O  0.09709493  0.80208502  0.43566348    -0.54900
O499        O  0.00473793  0.78596822  0.37658455    -0.53700
C500        C  0.10515723  0.85846702  0.36772324     0.80000
O501        O  0.01562520  0.83494642  0.36106354    -0.56100
O502        O  0.04802989  0.82087817  0.44293943    -0.54600
O503        O  0.09306113  0.77477582  0.34271145    -0.54500
O504        O  0.10395187  0.83273079  0.35047051    -0.53700
O505        O  0.18549903  0.68899919  0.33297640    -0.54900
C506        C  0.27324072  0.64083024  0.29370002     0.77700
O507        O  0.27253274  0.67214576  0.39470454    -0.56100
C508        C  0.16638066  0.68161970  0.35611783     0.77700
C509        C  0.23989973  0.59148516  0.38591534     0.80100
Cd510      Cd  0.23452236  0.65510432  0.35227533     1.37500
O511        O  0.24826866  0.62428858  0.30229886    -0.54900
O512        O  0.23349285  0.59285864  0.35598495    -0.53700
C513        C  0.27473908  0.70210440  0.38723846     0.80000
O514        O  0.24304278  0.61895030  0.40024809    -0.56100
O515        O  0.27845231  0.66697680  0.30955828    -0.54600
O516        O  0.17717793  0.65995205  0.37491968    -0.54500
O517        O  0.25809610  0.71117037  0.36313569    -0.53700
C518        C  0.33125685  0.76161257  0.21788432     0.32900
C519        C  0.31608180  0.72758808  0.16250099     0.32900
C520        C  0.32417249  0.72470758  0.22236539    -0.03300
C521        C  0.29998151  0.77290786  0.19977656    -0.04100
C522        C  0.35786680  0.76162556  0.19091711    -0.04000
C523        C  0.31615082  0.70760570  0.19406299    -0.03300
C524        C  0.29311754  0.75640467  0.17099594    -0.04100
C525        C  0.35014847  0.74424918  0.16278292    -0.04000
C526        C  0.30989127  0.67569926  0.20264095    -0.29400
N527        N  0.31337016  0.67265834  0.23514458     0.17100
C528        C  0.32269242  0.70235093  0.24746666    -0.29400
H529        H  0.32947856  0.70688968  0.27237128     0.19100
C530        C  0.26711798  0.77247067  0.15637518    -0.28300
N531        N  0.25699884  0.79707179  0.17647413     0.15900
C532        C  0.27583572  0.79656127  0.20344969    -0.28300
C533        C  0.37554831  0.74945673  0.14097430    -0.28600
N534        N  0.39872851  0.76889480  0.15518883     0.16400
H535        H  0.37697542  0.74008443  0.11643346     0.19000
C536        C  0.38804943  0.77660139  0.18563780    -0.28600
H537        H  0.40078174  0.79264818  0.20241197     0.19000
H538        H  0.27171483  0.81222555  0.22414084     0.19000
H539        H  0.30468839  0.65557570  0.18613427     0.19100
H540        H  0.25675366  0.76711337  0.13284998     0.19000
C541        C  0.32171245  0.80884272  0.30025505     0.32900
C542        C  0.31286507  0.85677310  0.34574923     0.32900
C543        C  0.30932655  0.84238120  0.28810890    -0.03300
C544        C  0.29763637  0.80011871  0.32799136    -0.04100
C545        C  0.35317225  0.81831259  0.31909640    -0.04000
C546        C  0.30388184  0.86638067  0.31140851    -0.03300
C547        C  0.29257966  0.82517416  0.35121196    -0.04100
C548        C  0.34856630  0.84334011  0.34216962    -0.04000
C549        C  0.29189117  0.89406398  0.29619411    -0.29400
N550        N  0.29161338  0.88781151  0.26393828     0.17100
C551        C  0.30377333  0.85708339  0.25878991    -0.29400
H552        H  0.30938738  0.84688380  0.23524428     0.19100
C553        C  0.28771326  0.80958339  0.38029173    -0.28300
N554        N  0.29040713  0.77667461  0.37660738     0.15900
C555        C  0.29694278  0.77068849  0.34496178    -0.28300
C556        C  0.37834588  0.84771990  0.35765030    -0.28600
N557        N  0.40067700  0.82580786  0.34535045     0.16400
H558        H  0.38326485  0.86498912  0.37708804     0.19000
C559        C  0.38558765  0.80761614  0.32182306    -0.28600
H560        H  0.39728444  0.78817147  0.30780832     0.19000
H561        H  0.30731041  0.74774664  0.33602315     0.19000
H562        H  0.28450089  0.91703213  0.30755115     0.19100
H563        H  0.28854315  0.82170863  0.40353895     0.19000
O564        O  0.13965350  0.95505908  0.16871840    -0.54900
C565        C  0.23315599  0.93643659  0.21224714     0.77700
O566        O  0.22672239  0.89538546  0.12240572    -0.56100
C567        C  0.12440498  0.93753605  0.14816453     0.77700
C568        C  0.21861601  0.00044912  0.11869116     0.80100
Cd569      Cd  0.19671225  0.94031312  0.15263014     1.37500
O570        O  0.20246750  0.94333855  0.21291150    -0.54900
O571        O  0.21328976  0.99981635  0.14884093    -0.53700
C572        C  0.21893999  0.87366350  0.14297817     0.80000
O573        O  0.21405777  0.97342588  0.10374740    -0.56100
O574        O  0.24691069  0.93586206  0.18471632    -0.54600
O575        O  0.14226658  0.92015247  0.12946177    -0.54500
O576        O  0.19876606  0.88233199  0.16492323    -0.53700
O577        O  0.33498998  0.86025415  0.92450459    -0.54900
C578        C  0.33775264  0.77328878  0.96347130     0.77700
O579        O  0.31345338  0.75949953  0.87950051    -0.56100
C580        C  0.32751482  0.87303993  0.89769430     0.77700
C581        C  0.41195321  0.79246819  0.87165215     0.80100
Cd582      Cd  0.34715010  0.80500349  0.90133050     1.37500
O583        O  0.34429065  0.80372648  0.96223576    -0.54900
O584        O  0.40923595  0.79981181  0.90135309    -0.53700
C585        C  0.28692333  0.77605688  0.87777489     0.80000
O586        O  0.38532843  0.79192502  0.85575789    -0.56100
O587        O  0.33848533  0.75784614  0.93679965    -0.54600
O588        O  0.33326143  0.85584183  0.87258171    -0.54500
O589        O  0.28937008  0.80664335  0.88225014    -0.53700
C590        C  0.17118365  0.67969895  0.96706990     0.32900
C591        C  0.13316449  0.69094170  0.91346885     0.32900
C592        C  0.13819949  0.69743332  0.97286682    -0.03300
C593        C  0.18683001  0.70054991  0.94057095    -0.04100
C594        C  0.16082115  0.64836875  0.94811603    -0.04000
C595        C  0.11836466  0.70273911  0.94609508    -0.03300
C596        C  0.16781984  0.70643041  0.91335718    -0.04100
C597        C  0.14135783  0.65431601  0.92023584    -0.04000
C598        C  0.09216491  0.72244889  0.95651712    -0.29400
N599        N  0.09676538  0.73008947  0.98819905     0.17100
C600        C  0.12475387  0.71501500  0.99827375    -0.29400
H601        H  0.13542345  0.71816832  0.02196965     0.19100
C602        C  0.18873843  0.71952068  0.89015958    -0.28300
N603        N  0.21954775  0.72142507  0.90297294     0.15900
C604        C  0.21854641  0.70981660  0.93339772    -0.28300
C605        C  0.14700015  0.62811499  0.89936670    -0.28600
N606        N  0.16774294  0.60621208  0.91332876     0.16400
H607        H  0.13865998  0.62641520  0.87459537     0.19000
C608        C  0.17719448  0.61885540  0.94236209    -0.28600
H609        H  0.19715149  0.60906890  0.95667124     0.19000
H610        H  0.23988664  0.70721072  0.94847229     0.19000
H611        H  0.07248237  0.73228929  0.94183370     0.19100
H612        H  0.18264474  0.72480401  0.86530902     0.19000
C613        C  0.22396717  0.66269312  0.04587066     0.32900
C614        C  0.25983790  0.68405142  0.09798259     0.32900
C615        C  0.25492691  0.68287551  0.03851513    -0.03300
C616        C  0.20532663  0.68387281  0.07090291    -0.04100
C617        C  0.23828090  0.63526986  0.06680203    -0.04000
C618        C  0.27297944  0.69519317  0.06446900    -0.03300
C619        C  0.22350949  0.69505241  0.09710494    -0.04100
C620        C  0.25642378  0.64618836  0.09404704    -0.04000
C621        C  0.29809519  0.71427290  0.05076858    -0.29400
N622        N  0.29632749  0.71140164  0.01795597     0.17100
C623        C  0.27074979  0.69148015  0.01068505    -0.29400
H624        H  0.26460400  0.68295257  0.98678446     0.19100
C625        C  0.20153001  0.70971143  0.11857390    -0.28300
N626        N  0.17057617  0.70710308  0.10614869     0.15900
C627        C  0.17264315  0.69070605  0.07749646    -0.28300
C628        C  0.25308053  0.62187336  0.11702180    -0.28600
N629        N  0.23524341  0.59663303  0.10452429     0.16400
H630        H  0.26063841  0.62373933  0.14202821     0.19000
C631        C  0.22537074  0.60504159  0.07443891    -0.28600
H632        H  0.20697507  0.59191646  0.06049784     0.19000
H633        H  0.15170787  0.68351656  0.06291313     0.19000
H634        H  0.31639045  0.72888505  0.06319703     0.19100
H635        H  0.20745716  0.72030843  0.14190425     0.19000
O636        O  0.04913629  0.87104226  0.10448256    -0.54900
C637        C  0.07729704  0.79251411  0.05362535     0.77700
O638        O  0.08240704  0.75867691  0.12797103    -0.56100
C639        C  0.06759457  0.88457469  0.12538074     0.77700
C640        C  0.99448836  0.79700979  0.14722434     0.80100
Cd641      Cd  0.05942386  0.81320494  0.11859503     1.37500
O642        O  0.09406984  0.81300657  0.06970152    -0.54900
O643        O  0.01962457  0.80355117  0.16429708    -0.53700
C644        C  0.10980522  0.76840129  0.13902859     0.80000
O645        O  0.99874102  0.79868668  0.11694247    -0.56100
O646        O  0.04938098  0.78485207  0.06534576    -0.54600
O647        O  0.08372596  0.86533540  0.14331070    -0.54500
O648        O  0.11176115  0.79855728  0.14654050    -0.53700
O649        O  0.25228767  0.67123551  0.67153137    -0.54900
C650        C  0.16768269  0.66647821  0.70885909     0.77700
O651        O  0.15123245  0.68815521  0.62880250    -0.56100
C652        C  0.26683386  0.67837124  0.64534578     0.77700
C653        C  0.18484071  0.59342126  0.61450612     0.80100
Cd654      Cd  0.19879215  0.65623196  0.64585865     1.37500
O655        O  0.19734005  0.65628450  0.70679721    -0.54900
O656        O  0.19050073  0.59509247  0.64453276    -0.53700
C657        C  0.16751588  0.71323199  0.62051911     0.80000
O658        O  0.18726785  0.61994890  0.59918448    -0.56100
O659        O  0.15251650  0.66958386  0.68240954    -0.54600
O660        O  0.25157600  0.67138058  0.61955285    -0.54500
O661        O  0.19858654  0.71021503  0.61912971    -0.53700
C662        C  0.07079555  0.78647456  0.79801037     0.32900
C663        C  0.09161312  0.74829220  0.84855500     0.32900
C664        C  0.08520619  0.75258459  0.78930698    -0.03300
C665        C  0.09715207  0.80150576  0.82013704    -0.04100
C666        C  0.04385362  0.77721587  0.82236032    -0.04000
C667        C  0.09717266  0.73321251  0.81439966    -0.03300
C668        C  0.10822638  0.78197947  0.84516800    -0.04100
C669        C  0.05424861  0.75807142  0.84844816    -0.04000
C670        C  0.11268026  0.70633054  0.79950606    -0.29400
N671        N  0.10825452  0.70856679  0.76690256     0.17100
C672        C  0.09056072  0.73603091  0.76097128    -0.29400
H673        H  0.08217747  0.74357371  0.73757148     0.19100
C674        C  0.12852788  0.80117253  0.86429586    -0.28300
N675        N  0.12858440  0.83203946  0.85244387     0.15900
C676        C  0.10907920  0.83262911  0.82582463    -0.28300
C677        C  0.52682181  0.74887841  0.86859758    -0.28600
N678        N  0.50182925  0.76673109  0.85553935     0.16400
H679        H  0.52744051  0.74091674  0.89346777     0.19000
C680        C  0.51181012  0.77681974  0.82589745    -0.28600
H681        H  0.49910223  0.79504021  0.81165205     0.19000
H682        H  0.10310776  0.85426199  0.81224063     0.19000
H683        H  0.12643397  0.68701572  0.81119204     0.19100
H684        H  0.14115696  0.79378030  0.88605624     0.19000
C685        C  0.08632044  0.83565835  0.71670348     0.32900
C686        C  0.09510190  0.86960552  0.66031694     0.32900
C687        C  0.10545132  0.86803854  0.71922870    -0.03300
C688        C  0.10494920  0.81767624  0.68932183    -0.04100
C689        C  0.05404374  0.84639007  0.69969578    -0.04000
C690        C  0.10987793  0.88537289  0.69083446    -0.03300
C691        C  0.10939658  0.83480939  0.66070670    -0.04100
C692        C  0.05859095  0.86363763  0.67040520    -0.04000
C693        C  0.12682916  0.91387360  0.69855291    -0.29400
N694        N  0.13243773  0.91403899  0.73082385     0.17100
C695        C  0.11944170  0.88637328  0.74359657    -0.29400
H696        H  0.11965310  0.88059861  0.76892023     0.19100
C697        C  0.11777592  0.81227489  0.63685054    -0.28300
N698        N  0.11845758  0.78219948  0.65039772     0.15900
C699        C  0.11042558  0.78517033  0.68201289    -0.28300
C700        C  0.52875183  0.84927082  0.65219174    -0.28600
N701        N  0.50696813  0.83124016  0.66986247     0.16400
H702        H  0.52376493  0.85960708  0.62872349     0.19000
C703        C  0.52190815  0.82208602  0.69771043    -0.28600
H704        H  0.51043856  0.80669212  0.71564548     0.19000
H705        H  0.10764807  0.76474615  0.69796939     0.19000
H706        H  0.13341610  0.93348169  0.68232112     0.19100
H707        H  0.12051947  0.81691049  0.61131569     0.19000
O708        O  0.26685695  0.95304911  0.83652408    -0.54900
C709        C  0.19169784  0.96040804  0.78157310     0.77700
O710        O  0.15293786  0.94603551  0.85496376    -0.56100
C711        C  0.27221860  0.93913405  0.86326674     0.77700
C712        C  0.20252325  0.03271729  0.87890298     0.80100
Cd713      Cd  0.20909616  0.96812383  0.84855242     1.37500
O714        O  0.22017103  0.95229608  0.79116607    -0.54900
O715        O  0.22527518  0.02674330  0.85849861    -0.53700
C716        C  0.16190678  0.91750534  0.86281385     0.80000
O717        O  0.18368171  0.00902893  0.88571374    -0.56100
O718        O  0.17437471  0.97745832  0.80097971    -0.54600
O719        O  0.24950592  0.94135550  0.88453467    -0.54500
O720        O  0.19236587  0.91347443  0.86855012    -0.53700
C721        C  0.17778240  0.94669585  0.75139677    -0.13500
C722        C  0.14514049  0.94057120  0.75006991    -0.28700
H723        H  0.19432561  0.93458072  0.73422861     0.15500
H724        H  0.12920532  0.94986966  0.76936868     0.16100
C725        C  0.14823247  0.85872747  0.86468283    -0.13500
C726        C  0.13832443  0.89004709  0.86171946    -0.28700
H727        H  0.17268486  0.85324806  0.87406254     0.15500
H728        H  0.11343266  0.89527047  0.85338629     0.16100
C729        C  0.08734086  0.81614735  0.74811264    -0.13500
C730        C  0.06252693  0.80772554  0.76862293    -0.28700
H731        H  0.11215480  0.80817562  0.75452849     0.15500
H732        H  0.03736992  0.81587180  0.76469503     0.16100
C733        C  0.15205731  0.67632143  0.74016237    -0.13500
C734        C  0.12088870  0.68817022  0.74093467    -0.28700
H735        H  0.16733427  0.67776883  0.76162495     0.15500
H736        H  0.10670695  0.68777258  0.71867763     0.16100
C737        C  0.12398656  0.75118187  0.63480442    -0.13500
C738        C  0.15171907  0.74561024  0.61771433    -0.28700
H739        H  0.11050652  0.73034989  0.64450616     0.15500
H740        H  0.16690596  0.76624039  0.61033534     0.16100
C741        C  0.13923031  0.74679515  0.13892672    -0.13500
C742        C  0.14012568  0.72051090  0.11885886    -0.28700
H743        H  0.16193095  0.75632489  0.14926280     0.15500
H744        H  0.11736294  0.71272602  0.10719192     0.16100
C745        C  0.17954152  0.57636311  0.89767653    -0.13500
C746        C  0.19288886  0.55116345  0.91417494    -0.28700
H747        H  0.17478710  0.57308957  0.87201979     0.15500
H748        H  0.21992898  0.08044423  0.89872099     0.16100
C749        C  0.07707005  0.75211089  0.00790680    -0.13500
C750        C  0.09187358  0.77635950  0.02472127    -0.28700
H751        H  0.05093883  0.74698107  0.01138431     0.15500
H752        H  0.11782167  0.78136299  0.01981126     0.16100
C753        C  0.10394922  0.73152370  0.87904453    -0.13500
C754        C  0.11332343  0.69991875  0.88328885    -0.28700
H755        H  0.10784220  0.74828540  0.89918032     0.15500
H756        H  0.10868501  0.68148968  0.86481771     0.16100
C757        C  0.19212141  0.67966798  0.99770151    -0.13500
C758        C  0.20349304  0.65441768  0.01569284    -0.28700
H759        H  0.19805552  0.70432045  0.00625737     0.15500
H760        H  0.19816735  0.62912665  0.00929322     0.16100
C761        C  0.30931246  0.90459269  0.89615314    -0.13500
C762        C  0.30197883  0.91845484  0.86770928    -0.28700
H763        H  0.29703637  0.91323728  0.91808052     0.15500
H764        H  0.31494116  0.91034740  0.84595658     0.16100
C765        C  0.44407786  0.78472509  0.85576070    -0.13500
C766        C  0.47158416  0.77625187  0.87209416    -0.28700
H767        H  0.44445342  0.78403820  0.82953613     0.15500
H768        H  0.47053089  0.77462485  0.89827202     0.16100
C769        C  0.32744697  0.75690517  0.99391888    -0.13500
C770        C  0.31681970  0.72555332  0.99312130    -0.28700
H771        H  0.32434385  0.77162673  0.01575930     0.15500
H772        H  0.31859795  0.71199875  0.97039220     0.16100
C773        C  0.25411525  0.76047922  0.87525392    -0.13500
C774        C  0.24996987  0.73042001  0.88749212    -0.28700
H775        H  0.23261684  0.77616338  0.87191706     0.15500
H776        H  0.27183670  0.71624177  0.89377677     0.16100
C777        C  0.06596326  0.92067950  0.13056495    -0.13500
C778        C  0.08813709  0.94130128  0.14432950    -0.28700
H779        H  0.04188396  0.93131555  0.12538806     0.15500
H780        H  0.07889578  0.96567761  0.15056293     0.16100
C781        C  0.21819402  0.53960913  0.10595647    -0.13500
C782        C  0.22520418  0.56768954  0.12185660    -0.28700
H783        H  0.22858968  0.03071202  0.07538336     0.15500
H784        H  0.22529080  0.56813286  0.14811468     0.16100
C785        C  0.27940145  0.90832438  0.23846225    -0.13500
C786        C  0.25139444  0.92629188  0.24153620    -0.28700
H787        H  0.28974249  0.90421391  0.21444405     0.15500
H788        H  0.23913668  0.92838441  0.26488837     0.16100
C789        C  0.42910921  0.77929984  0.13972940    -0.13500
C790        C  0.45603061  0.78799179  0.15686682    -0.28700
H791        H  0.43101129  0.77749376  0.11356301     0.09100
H792        H  0.95934855  0.79233539  0.18810223     0.16100
C793        C  0.30646703  0.70939081  0.13172442    -0.13500
C794        C  0.27649332  0.69526826  0.12910935    -0.28700
H795        H  0.32342252  0.70937848  0.11150508     0.15500
H796        H  0.26153666  0.69356335  0.15093859     0.16100
C797        C  0.23454540  0.84068604  0.14331732    -0.13500
C798        C  0.23305867  0.82233124  0.17024691    -0.28700
H799        H  0.25150553  0.83385768  0.12391657     0.15500
H800        H  0.21819535  0.83096397  0.19061564     0.16100
C801        C  0.34001835  0.78254848  0.24736479    -0.13500
C802        C  0.32166588  0.78201172  0.27439549    -0.28700
H803        H  0.35930133  0.80093215  0.24521065     0.15500
H804        H  0.30247390  0.76345109  0.27610446     0.16100
C805        C  0.29752277  0.62639279  0.27064062    -0.13500
C806        C  0.31829465  0.64106570  0.24962328    -0.28700
H807        H  0.30057125  0.59997448  0.27295708     0.15500
H808        H  0.33547201  0.62467247  0.23706984     0.16100
C809        C  0.30089557  0.75662558  0.40321902    -0.13500
C810        C  0.29536712  0.72426831  0.40700214    -0.28700
H811        H  0.31467821  0.76874771  0.42242724     0.15500
H812        H  0.30619736  0.71320888  0.42829276     0.16100
C813        C  0.13447236  0.69884842  0.36311043    -0.13500
C814        C  0.12380203  0.72466919  0.34589169    -0.28700
H815        H  0.12188880  0.69291118  0.38556461     0.15500
H816        H  0.13660574  0.73074260  0.32358789     0.16100
C817        C  0.45093304  0.79526882  0.35917434    -0.13500
C818        C  0.43485176  0.82403247  0.35538377    -0.28700
H819        H  0.94609514  0.79439139  0.34604983     0.15500
H820        H  0.44709454  0.84670217  0.36250202     0.16100
C821        C  0.24789324  0.53041121  0.38887593    -0.13500
C822        C  0.24376118  0.55991471  0.40373475    -0.28700
H823        H  0.24867509  0.52950021  0.36262849     0.15500
H824        H  0.24492318  0.56134726  0.42990609     0.16100
C825        C  0.27551801  0.89435639  0.37559633    -0.13500
C826        C  0.30662535  0.88346330  0.37096313    -0.28700
H827        H  0.25732726  0.88638053  0.35807231     0.15500
H828        H  0.32630850  0.89108320  0.38706294     0.16100
C829        C  0.13772776  0.90394427  0.38851991    -0.13500
C830        C  0.13283791  0.88162684  0.36490185    -0.28700
H831        H  0.11724279  0.90991328  0.40473561     0.15500
H832        H  0.15266759  0.87496609  0.34832048     0.16100
C833        C  0.16434279  0.53591144  0.61300931    -0.13500
C834        C  0.17565118  0.56263944  0.59757578    -0.28700
H835        H  0.16153166  0.53670269  0.63914098     0.15500
H836        H  0.17649608  0.56277491  0.57136928     0.16100
C837        C  0.11838495  0.83320666  0.49427140    -0.13500
C838        C  0.08623655  0.82947492  0.48664264    -0.28700
H839        H  0.13691391  0.82272338  0.47801021     0.15500
H840        H  0.06755352  0.84216138  0.50108329     0.16100
C841        C  0.13597008  0.89138066  0.62176262    -0.13500
C842        C  0.10360804  0.88782347  0.62936159    -0.28700
H843        H  0.15370104  0.88172126  0.63882555     0.15500
H844        H  0.08437398  0.89683023  0.61351085     0.16100
C845        C  0.22293158  0.94563607  0.49528153    -0.13500
C846        C  0.19148187  0.94545882  0.50563150    -0.28700
H847        H  0.24234367  0.94867039  0.51260235     0.15500
H848        H  0.17205071  0.95021069  0.48881795     0.16100
C849        C  0.31383571  0.70451622  0.61732625    -0.13500
C850        C  0.29811672  0.69727233  0.64511299    -0.28700
H851        H  0.30729451  0.69140362  0.59527705     0.15500
H852        H  0.30501495  0.70986922  0.66733800     0.16100
C853        C  0.46414725  0.81701737  0.63072644    -0.13500
C854        C  0.47334369  0.82293951  0.66145941    -0.28700
H855        H  0.48257834  0.81791798  0.61155977     0.15500
H856        H  0.45538314  0.81991689  0.68084190     0.16100
C857        C  0.32853070  0.82636818  0.50493276    -0.13500
C858        C  0.32182718  0.85841973  0.50073542    -0.28700
H859        H  0.31752778  0.80813553  0.48896765     0.15500
H860        H  0.33101509  0.87614420  0.51833344     0.16100
C861        C  0.27517333  0.89027597  0.60678954    -0.13500
C862        C  0.27952462  0.86372848  0.62546019    -0.28700
H863        H  0.29625412  0.89957701  0.59326034     0.15500
H864        H  0.25869214  0.85307082  0.63819009     0.16100
O865        O  0.84468497  0.24210169  0.59690523    -0.54900
C866        C  0.84701868  0.31564638  0.54463011     0.77700
O867        O  0.83782684  0.35531923  0.61937458    -0.56100
C868        C  0.83061812  0.23665512  0.62382282     0.77700
C869        C  0.92643990  0.30805106  0.64010866     0.80100
Cd870      Cd  0.86084554  0.29963096  0.61142094     1.37500
O871        O  0.84988532  0.28584580  0.55291411    -0.54900
O872        O  0.90058338  0.30305782  0.65647849    -0.53700
C873        C  0.81146445  0.34596413  0.63301326     0.80000
O874        O  0.92302488  0.30728690  0.60972216    -0.56100
O875        O  0.85437537  0.33692025  0.56588623    -0.54600
O876        O  0.83343746  0.25871173  0.64535770    -0.54500
O877        O  0.80986395  0.31599466  0.64032375    -0.53700
C878        C  0.68520205  0.43623723  0.54642365     0.32900
C879        C  0.65477464  0.41121137  0.59993177     0.32900
C880        C  0.66010376  0.40848818  0.54082239    -0.03300
C881        C  0.70857504  0.42129927  0.57190570    -0.04100
C882        C  0.66538565  0.46143425  0.56693046    -0.04000
C883        C  0.64419599  0.39611485  0.56765420    -0.03300
C884        C  0.69270507  0.40800540  0.59884266    -0.04100
C885        C  0.65012159  0.44873700  0.59526982    -0.04000
C886        C  0.62375201  0.37081132  0.55717901    -0.29400
N887        N  0.62768833  0.36739797  0.52472592     0.17100
C888        C  0.65024385  0.38973038  0.51478366    -0.29400
H889        H  0.65974313  0.39110779  0.49048032     0.19100
C890        C  0.71674299  0.39742878  0.61983501    -0.28300
N891        N  0.74676948  0.40444749  0.60683759     0.15900
C892        C  0.74206024  0.41986140  0.57837754    -0.28300
C893        C  0.64748848  0.97089884  0.60196669    -0.28600
N894        N  0.66252388  0.99522118  0.58507058     0.16400
H895        H  0.63857376  0.97342714  0.62659004     0.19000
C896        C  0.67460402  0.98198140  0.55701334    -0.28600
H897        H  0.69101495  0.99462343  0.54065531     0.19000
H898        H  0.76217602  0.42952925  0.56431005     0.19000
H899        H  0.60846613  0.35517058  0.57201074     0.19100
H900        H  0.71268196  0.38586682  0.64291470     0.19000
C901        C  0.73908133  0.43315609  0.46852558     0.32900
C902        C  0.76394045  0.40574874  0.41267881     0.32900
C903        C  0.76012081  0.40192032  0.47201718    -0.03300
C904        C  0.71306937  0.42266728  0.44327164    -0.04100
C905        C  0.76173181  0.45586713  0.44851902    -0.04000
C906        C  0.77345113  0.38817272  0.44401275    -0.03300
C907        C  0.72594481  0.40822503  0.41518344    -0.04100
C908        C  0.77405173  0.44208541  0.41897093    -0.04000
C909        C  0.79960540  0.36815244  0.45367360    -0.29400
N910        N  0.80073836  0.36817888  0.48648336     0.17100
C911        C  0.77705462  0.38887476  0.49760744    -0.29400
H912        H  0.77478526  0.39632653  0.52255046     0.19100
C913        C  0.69967772  0.40064856  0.39527158    -0.28300
N914        N  0.67129578  0.41040029  0.41023945     0.15900
C915        C  0.67923407  0.42448673  0.43888922    -0.28300
C916        C  0.76685645  0.97328396  0.38803267    -0.28600
N917        N  0.75403266  0.00046434  0.40312854     0.16400
H918        H  0.77462940  0.97245341  0.36296401     0.19000
C919        C  0.74279693  0.99124934  0.43268138    -0.28600
H920        H  0.72880579  0.00673305  0.44921522     0.19000
H921        H  0.66074693  0.43438385  0.45507739     0.19000
H922        H  0.81862942  0.35767808  0.43824819     0.19100
H923        H  0.70110550  0.38853608  0.37195382     0.19000
O924        O  0.58143414  0.25392748  0.41264732    -0.54900
C925        C  0.56923221  0.32131224  0.47067218     0.77700
O926        O  0.58042838  0.36379026  0.40554115    -0.56100
C927        C  0.59304399  0.25065008  0.38420054     0.77700
C928        C  0.48821599  0.31325593  0.37719076     0.80100
Cd929      Cd  0.55602039  0.30905471  0.40292239     1.37500
O930        O  0.58839831  0.30525411  0.45220455    -0.54900
O931        O  0.50174368  0.28590435  0.38333792    -0.53700
C932        C  0.60068528  0.35939811  0.38255250     0.80000
O933        O  0.50517090  0.33843509  0.38393242    -0.56100
O934        O  0.54041263  0.32672586  0.45995141    -0.54600
O935        O  0.58432899  0.27211311  0.36395709    -0.54500
O936        O  0.59661275  0.33393904  0.36534962    -0.53700
O937        O  0.67142488  0.17925607  0.35840311    -0.54900
C938        C  0.74358049  0.16318454  0.29741512     0.77700
O939        O  0.77531390  0.17258263  0.40362408    -0.56100
C940        C  0.66860239  0.19288082  0.38600557     0.77700
C941        C  0.72986776  0.09062797  0.38722220     0.80100
Cd942      Cd  0.72999750  0.16003570  0.36615372     1.37500
O943        O  0.71749207  0.17569671  0.30939732    -0.54900
O944        O  0.75239732  0.10208243  0.36935972    -0.53700
C945        C  0.78256712  0.20077098  0.39328564     0.80000
O946        O  0.70683501  0.11050917  0.39459946    -0.56100
O947        O  0.76137468  0.14679545  0.31639326    -0.54600
O948        O  0.69317540  0.19000323  0.40464550    -0.54500
O949        O  0.76518151  0.21122106  0.37031620    -0.53700
C950        C  0.83141867  0.27194143  0.21116678     0.32900
C951        C  0.81567975  0.23750976  0.15599749     0.32900
C952        C  0.80196573  0.24811806  0.21372927    -0.03300
C953        C  0.82177348  0.29259670  0.18179905    -0.04100
C954        C  0.85931979  0.24981206  0.19714209    -0.04000
C955        C  0.79441523  0.23000349  0.18593783    -0.03300
C956        C  0.81360729  0.27507611  0.15408264    -0.04100
C957        C  0.85129847  0.23223334  0.16833791    -0.04000
C958        C  0.77019307  0.20757594  0.19437581    -0.29400
N959        N  0.76222549  0.21278798  0.22591955     0.17100
C960        C  0.78082830  0.23769682  0.23766436    -0.29400
H961        H  0.77925707  0.24656372  0.26231344     0.19100
C962        C  0.80084047  0.29711249  0.13238050    -0.28300
N963        N  0.80142031  0.32746665  0.14584478     0.15900
C964        C  0.81409973  0.32512647  0.17612192    -0.28300
C965        C  0.88043826  0.22952131  0.15085233    -0.28600
N966        N  0.90557268  0.24314596  0.16784059     0.16400
H967        H  0.88229814  0.22200516  0.12572888     0.19000
C968        C  0.89286583  0.25605562  0.19559987    -0.28600
H969        H  0.90583904  0.27318614  0.21115293     0.19000
H970        H  0.81465399  0.34497816  0.19368844     0.19000
H971        H  0.76011855  0.18820303  0.17933872     0.19100
H972        H  0.78935220  0.29147039  0.10944832     0.19000
C973        C  0.82743130  0.30953890  0.29913405     0.32900
C974        C  0.81454516  0.35538687  0.34662711     0.32900
C975        C  0.80546321  0.33886292  0.28974156    -0.03300
C976        C  0.80904127  0.29639422  0.32911557    -0.04100
C977        C  0.85790673  0.32617400  0.31405416    -0.04000
C978        C  0.79945540  0.36256681  0.31353773    -0.03300
C979        C  0.80215897  0.32009763  0.35337283    -0.04100
C980        C  0.85136940  0.34963893  0.33824212    -0.04000
C981        C  0.77645519  0.38439704  0.30137441    -0.29400
N982        N  0.76801450  0.37391402  0.27126982     0.17100
C983        C  0.78516803  0.34604577  0.26426141    -0.29400
H984        H  0.78185349  0.33126347  0.24265172     0.19100
C985        C  0.80122895  0.30335797  0.38215242    -0.28300
N986        N  0.80656289  0.27089174  0.37685961     0.15900
C987        C  0.81234350  0.26657711  0.34479268    -0.28300
C988        C  0.88106182  0.35638605  0.35317474    -0.28600
N989        N  0.90503999  0.33736868  0.33935917     0.16400
H990        H  0.88453573  0.37186794  0.37429712     0.19000
C991        C  0.89113922  0.31851565  0.31577878    -0.28600
H992        H  0.90385852  0.29941163  0.30215673     0.19000
H993        H  0.82372963  0.24472823  0.33448176     0.19000
H994        H  0.76523958  0.40498478  0.31409953     0.19100
H995        H  0.80197338  0.31475391  0.40580140     0.19000
O996        O  0.64643162  0.43599066  0.16617263    -0.54900
C997        C  0.71910448  0.43238791  0.22017697     0.77700
O998        O  0.76502432  0.43817833  0.15403587    -0.56100
C999        C  0.64212481  0.42272456  0.13863059     0.77700
C1000       C  0.71363385  0.51364291  0.12582505     0.80100
Cd1001     Cd  0.70538317  0.45031809  0.15521508     1.37500
O1002       O  0.70694919  0.41294982  0.19943669    -0.54900
O1003       O  0.71274063  0.48698706  0.10998251    -0.53700
C1004       C  0.76174494  0.41024507  0.14095560     0.80000
O1005       O  0.70920001  0.51184012  0.15615265    -0.56100
O1006       O  0.71973669  0.46265341  0.21292477    -0.54600
O1007       O  0.66530063  0.42576806  0.11826165    -0.54500
O1008       O  0.73350654  0.40343290  0.12966362    -0.53700
O1009       O  0.85382386  0.35030874  0.91590266    -0.54900
C1010       C  0.86251949  0.26417288  0.95634608     0.77700
O1011       O  0.84168036  0.24639330  0.86879432    -0.56100
C1012       C  0.84270690  0.36139232  0.88955888     0.77700
C1013       C  0.93320933  0.28638530  0.86187694     0.80100
Cd1014     Cd  0.86875615  0.29498608  0.89361424     1.37500
O1015       O  0.86946614  0.29451663  0.95461570    -0.54900
O1016       O  0.93056777  0.28784065  0.89236598    -0.53700
C1017       C  0.81266540  0.25765344  0.87252120     0.80000
O1018       O  0.90670320  0.29012777  0.84625324    -0.56100
O1019       O  0.86211647  0.24844504  0.92984980    -0.54600
O1020       O  0.84741646  0.34357881  0.86467414    -0.54500
O1021       O  0.81017598  0.28726361  0.88165116    -0.53700
C1022       C  0.68744609  0.18744469  0.96081985     0.32900
C1023       C  0.64197690  0.20434377  0.91522801     0.32900
C1024       C  0.66033202  0.21145302  0.97149830    -0.03300
C1025       C  0.70129606  0.20374563  0.93044458    -0.04100
C1026       C  0.66778037  0.15828876  0.94647004    -0.04000
C1027       C  0.63692828  0.21979765  0.94866193    -0.03300
C1028       C  0.67825781  0.21275048  0.90729235    -0.04100
C1029       C  0.64416997  0.16708046  0.92244822    -0.04000
C1030       C  0.60957013  0.23192883  0.96529152    -0.29400
N1031       N  0.61656111  0.23183403  0.99720982     0.17100
C1032       C  0.64711875  0.21915420  0.00114902    -0.29400
H1033       H  0.65790959  0.21391031  0.02416988     0.19100
C1034       C  0.69544095  0.22846095  0.88302223    -0.28300
N1035       N  0.72798713  0.22873637  0.89080423     0.15900
C1036       C  0.73182565  0.21384154  0.91975845    -0.28300
C1037       C  0.64335636  0.14097410  0.90077833    -0.28600
N1038       N  0.66390496  0.11686827  0.91075160     0.16400
H1039       H  0.63118257  0.14091802  0.87755900     0.19000
C1040       C  0.67945967  0.12747683  0.93777944    -0.28600
H1041       H  0.70105989  0.11564098  0.94776028     0.19000
H1042       H  0.75485310  0.21229412  0.93287976     0.19000
H1043       H  0.58536066  0.23698819  0.95541792     0.19100
H1044       H  0.68521262  0.23946365  0.86160700     0.19000
C1045       C  0.74114499  0.16260164  0.03638734     0.32900
C1046       C  0.77831600  0.17978711  0.08896364     0.32900
C1047       C  0.77396599  0.17994066  0.02942461    -0.03300
C1048       C  0.72413766  0.18507323  0.06143307    -0.04100
C1049       C  0.75244651  0.13362983  0.05727190    -0.04000
C1050       C  0.79290198  0.18934955  0.05578609    -0.03300
C1051       C  0.74304412  0.19458939  0.08814516    -0.04100
C1052       C  0.77150139  0.14261131  0.08447336    -0.04000
C1053       C  0.82065687  0.20520766  0.04339874    -0.29400
N1054       N  0.81876614  0.20455289  0.01049717     0.17100
C1055       C  0.79069825  0.18875258  0.00198116    -0.29400
H1056       H  0.78292381  0.18422654  0.97736205     0.19100
C1057       C  0.72073388  0.20347574  0.11248035    -0.28300
N1058       N  0.68943662  0.19894123  0.10150067     0.15900
C1059       C  0.69158958  0.18589734  0.07143363    -0.28300
C1060       C  0.76807442  0.11763905  0.10642456    -0.28600
N1061       N  0.74909909  0.09356156  0.09343200     0.16400
H1062       H  0.77660276  0.11807526  0.13117423     0.19000
C1063       C  0.73866050  0.10337361  0.06388505    -0.28600
H1064       H  0.71985234  0.09107344  0.04975506     0.19000
H1065       H  0.67096152  0.17516759  0.05859928     0.19000
H1066       H  0.84076995  0.21581444  0.05711150     0.19100
H1067       H  0.72683696  0.21027974  0.13702607     0.19000
O1068       O  0.57487207  0.34426216  0.11678432    -0.54900
C1069       C  0.56791960  0.27343945  0.06223063     0.77700
O1070       O  0.59468878  0.23462454  0.13210364    -0.56100
C1071       C  0.58181958  0.35259476  0.14556539     0.77700
C1072       C  0.49531520  0.27188351  0.15488226     0.80100
Cd1073     Cd  0.56151023  0.28649812  0.12966998     1.37500
O1074       O  0.56497748  0.25111170  0.08308632    -0.54900
O1075       O  0.52077740  0.27176576  0.17255477    -0.53700
C1076       C  0.62137253  0.24811395  0.14093993     0.80000
O1077       O  0.50002511  0.27903415  0.12557792    -0.56100
O1078       O  0.56382852  0.30283102  0.07196673    -0.54600
O1079       O  0.57636645  0.33145519  0.16718178    -0.54500
O1080       O  0.61911644  0.27786740  0.14961156    -0.53700
O1081       O  0.75413458  0.16389159  0.63866533    -0.54900
C1082       C  0.67944296  0.15947733  0.68993984     0.77700
O1083       O  0.64465902  0.18603116  0.61969323    -0.56100
C1084       C  0.76317543  0.17365467  0.61098040     0.77700
C1085       C  0.68261052  0.08706098  0.59402715     0.80100
Cd1086     Cd  0.69621115  0.15224660  0.62279192     1.37500
O1087       O  0.70930986  0.15399608  0.68184724    -0.54900
O1088       O  0.68984571  0.09104553  0.62349062    -0.53700
C1089       C  0.65897071  0.21247814  0.61199884     0.80000
O1090       O  0.68166111  0.11298223  0.57738270    -0.56100
O1091       O  0.65809512  0.15697271  0.66780158    -0.54600
O1092       O  0.74259622  0.17002709  0.58826981    -0.54500
O1093       O  0.68906591  0.20987419  0.60390349    -0.53700
C1094       C  0.59001364  0.28162158  0.78912256     0.32900
C1095       C  0.60618930  0.23688285  0.83539261     0.32900
C1096       C  0.61014868  0.25162971  0.77806275    -0.03300
C1097       C  0.61035052  0.29468396  0.81748580    -0.04100
C1098       C  0.55985865  0.26592022  0.80656429    -0.04000
C1099       C  0.61808491  0.22868041  0.80107698    -0.03300
C1100       C  0.61903846  0.27213303  0.84091128    -0.04100
C1101       C  0.56841631  0.24276531  0.83078071    -0.04000
C1102       C  0.63301773  0.20231019  0.78504304    -0.29400
N1103       N  0.63442423  0.20945257  0.75309861     0.17100
C1104       C  0.62103453  0.23952985  0.74889277    -0.29400
H1105       H  0.61886707  0.25126056  0.72595335     0.19100
C1106       C  0.63725611  0.28904292  0.86389035    -0.28300
N1107       N  0.63927964  0.32095521  0.85498166     0.15900
C1108       C  0.62308133  0.32458262  0.82660458    -0.28300
C1109       C  0.04454387  0.23697073  0.85228646    -0.28600
N1110       N  0.02168421  0.25887673  0.84209338     0.16400
H1111       H  0.04284748  0.22393992  0.87490264     0.19000
C1112       C  0.03458039  0.27505128  0.81644808    -0.28600
H1113       H  0.02417579  0.29740775  0.80683133     0.19000
H1114       H  0.62166863  0.34714116  0.81314818     0.19000
H1115       H  0.64010435  0.17899118  0.79529743     0.19100
H1116       H  0.64801112  0.27920916  0.88561230     0.19000
C1117       C  0.57064555  0.33599602  0.71290522     0.32900
C1118       C  0.59245092  0.37048160  0.66065330     0.32900
C1119       C  0.59064679  0.36723814  0.72013727    -0.03300
C1120       C  0.59254244  0.31698583  0.68846938    -0.04100
C1121       C  0.54301024  0.34914169  0.69110692    -0.04000
C1122       C  0.60222525  0.38444390  0.69377121    -0.03300
C1123       C  0.60458433  0.33462915  0.66217286    -0.04100
C1124       C  0.55415414  0.36664090  0.66368581    -0.04000
C1125       C  0.62157396  0.40995895  0.70547430    -0.29400
N1126       N  0.62111856  0.40879371  0.73824820     0.17100
C1127       C  0.60184253  0.38326145  0.74735731    -0.29400
H1128       H  0.59684475  0.37653038  0.77208930     0.19100
C1129       C  0.61495204  0.31180541  0.63905059    -0.28300
N1130       N  0.60872202  0.28113123  0.65026155     0.15900
C1131       C  0.59304747  0.28440998  0.67911429    -0.28300
C1132       C  0.03938604  0.35550992  0.64472133    -0.28600
N1133       N  0.01352828  0.33978411  0.65873365     0.16400
H1134       H  0.04149122  0.36012487  0.61907200     0.19000
C1135       C  0.02191373  0.33316160  0.68978189    -0.28600
H1136       H  0.00838582  0.31703749  0.70566792     0.19000
H1137       H  0.58074765  0.26457024  0.69149816     0.19000
H1138       H  0.63488555  0.42792428  0.69139311     0.19100
H1139       H  0.62413391  0.31717930  0.61509548     0.19000
O1140       O  0.77190837  0.43731259  0.83222094    -0.54900
C1141       C  0.68809032  0.44923814  0.78721748     0.77700
O1142       O  0.66243157  0.43361327  0.86490072    -0.56100
C1143       C  0.78087266  0.42513024  0.85889178     0.77700
C1144       C  0.71245862  0.52218122  0.87925626     0.80100
Cd1145     Cd  0.71677213  0.45610759  0.85090789     1.37500
O1146       O  0.71894343  0.44513016  0.79071172    -0.54900
O1147       O  0.73304242  0.51559348  0.85690194    -0.53700
C1148       C  0.67249898  0.40487695  0.87053065     0.80000
O1149       O  0.69558839  0.49832397  0.88950250    -0.56100
O1150       O  0.67273908  0.46120488  0.81120446    -0.54600
O1151       O  0.76160673  0.42988214  0.88286858    -0.54500
O1152       O  0.70349266  0.40089350  0.87233077    -0.53700
C1153       C  0.67006973  0.43759846  0.75818484    -0.13500
C1154       C  0.63767194  0.43007999  0.76084216    -0.28700
H1155       H  0.68399126  0.42989747  0.73688313     0.15500
H1156       H  0.62496809  0.43512234  0.78359617     0.16100
C1157       C  0.65925451  0.34584271  0.87006436    -0.13500
C1158       C  0.64907050  0.37727325  0.87061269    -0.28700
H1159       H  0.68437022  0.33957501  0.87701373     0.15500
H1160       H  0.62356325  0.38277222  0.86439219     0.16100
C1161       C  0.56254759  0.31583583  0.74314745    -0.13500
C1162       C  0.58826618  0.30603753  0.76153870    -0.28700
H1163       H  0.53742977  0.30823699  0.74850237     0.15500
H1164       H  0.61271707  0.31430407  0.75408166     0.16100
C1165       C  0.66998933  0.17144449  0.72264365    -0.13500
C1166       C  0.64117003  0.18767563  0.72638269    -0.28700
H1167       H  0.68828041  0.17195303  0.74176484     0.15500
H1168       H  0.62450725  0.18928099  0.70589955     0.16100
C1169       C  0.61704416  0.24957994  0.63597292    -0.13500
C1170       C  0.64289379  0.24521864  0.61560284    -0.28700
H1171       H  0.60560620  0.22796046  0.64642937     0.15500
H1172       H  0.65616156  0.26647502  0.60669822     0.16100
C1173       C  0.65412134  0.23166622  0.13774204    -0.13500
C1174       C  0.65818575  0.20608308  0.11719291    -0.28700
H1175       H  0.67572043  0.24479586  0.14644506     0.15500
H1176       H  0.63621642  0.19475770  0.10694438     0.16100
C1177       C  0.67159618  0.08742083  0.89255734    -0.13500
C1178       C  0.68172927  0.05992124  0.90730877    -0.28700
H1179       H  0.66683621  0.08688547  0.86673257     0.15500
H1180       H  0.72910088  0.57212330  0.89425753     0.16100
C1181       C  0.59398552  0.23651371  0.02352627    -0.13500
C1182       C  0.57898661  0.26548221  0.02908669    -0.28700
H1183       H  0.59474670  0.21838218  0.04264224     0.15500
H1184       H  0.58060209  0.28488224  0.01132020     0.16100
C1185       C  0.61886227  0.21201985  0.85963600    -0.13500
C1186       C  0.61657334  0.21736458  0.89146784    -0.28700
H1187       H  0.63591418  0.19314531  0.85114649     0.15500
H1188       H  0.59983154  0.23664051  0.89973409     0.16100
C1189       C  0.71260284  0.18373854  0.98784681    -0.13500
C1190       C  0.71979506  0.15725683  0.00623731    -0.28700
H1191       H  0.72386930  0.20698396  0.99479683     0.15500
H1192       H  0.70906673  0.13339789  0.00123006     0.16100
C1193       C  0.82225441  0.39175840  0.88864341    -0.13500
C1194       C  0.81072539  0.40388141  0.86068128    -0.28700
H1195       H  0.81276486  0.40140266  0.91146186     0.15500
H1196       H  0.82082908  0.39468341  0.83793033     0.16100
C1197       C  0.96515493  0.28042273  0.84489987    -0.13500
C1198       C  0.99153704  0.26687418  0.85949428    -0.28700
H1199       H  0.96626949  0.28533106  0.81917972     0.15500
H1200       H  0.98946010  0.25976126  0.88466812     0.16100
C1201       C  0.85244243  0.24827883  0.98709271    -0.13500
C1202       C  0.84145444  0.21704337  0.98668228    -0.28700
H1203       H  0.84884555  0.26348630  0.00854516     0.15500
H1204       H  0.84365840  0.20296767  0.96429552     0.16100
C1205       C  0.78349147  0.23619802  0.87074785    -0.13500
C1206       C  0.75291923  0.24829301  0.87556937    -0.28700
H1207       H  0.78756823  0.20986315  0.87234409     0.15500
H1208       H  0.74821704  0.27446026  0.87313012     0.16100
C1209       C  0.59823236  0.38404303  0.15366680    -0.13500
C1210       C  0.61333690  0.40192523  0.13080007    -0.28700
H1211       H  0.60351411  0.38895399  0.17897913     0.15500
H1212       H  0.60973137  0.39554218  0.10550227     0.16100
C1213       C  0.73163545  0.03630134  0.09577997    -0.13500
C1214       C  0.73902602  0.06476422  0.11080293    -0.28700
H1215       H  0.71814342  0.54347001  0.08265641     0.15500
H1216       H  0.74053300  0.06537000  0.13702684     0.16100
C1217       C  0.74379703  0.38734719  0.24978768    -0.13500
C1218       C  0.73513765  0.41936942  0.24946063    -0.28700
H1219       H  0.73564726  0.37138785  0.23016609     0.15500
H1220       H  0.74464757  0.43635205  0.26751854     0.16100
C1221       C  0.93779140  0.25005258  0.15444427    -0.13500
C1222       C  0.96393937  0.25755176  0.17310738    -0.28700
H1223       H  0.94084802  0.24923831  0.12833074     0.09100
H1224       H  0.45982880  0.26428309  0.19450072     0.16100
C1225       C  0.80482338  0.22172405  0.12412080    -0.13500
C1226       C  0.79826560  0.18981758  0.11876317    -0.28700
H1227       H  0.79848684  0.23809447  0.10462676     0.15500
H1228       H  0.80439236  0.17180696  0.13694700     0.16100
C1229       C  0.78830082  0.38557876  0.14271063    -0.13500
C1230       C  0.78278210  0.35451155  0.13331545    -0.28700
H1231       H  0.81005719  0.39146019  0.15690975     0.15500
H1232       H  0.76148458  0.34892267  0.11829576     0.16100
C1233       C  0.83953757  0.29316390  0.24105446    -0.13500
C1234       C  0.83370318  0.28426281  0.27199422    -0.28700
H1235       H  0.84442659  0.31898058  0.23680969     0.15500
H1236       H  0.82957064  0.25860436  0.27722208     0.16100
C1237       C  0.75498519  0.16980932  0.26414963    -0.13500
C1238       C  0.74120807  0.19341175  0.24616852    -0.28700
H1239       H  0.77936752  0.16065861  0.25731336     0.15500
H1240       H  0.71786619  0.20427882  0.25395151     0.16100
C1241       C  0.81982894  0.25023496  0.40164538    -0.13500
C1242       C  0.80987260  0.21945950  0.40827206    -0.28700
H1243       H  0.83889265  0.26065429  0.41706550     0.15500
H1244       H  0.82253279  0.20723993  0.42791302     0.16100
C1245       C  0.63897479  0.21224946  0.39616021    -0.13500
C1246       C  0.61711725  0.22450484  0.37489809    -0.28700
H1247       H  0.63730562  0.21983817  0.42137218     0.15500
H1248       H  0.62027947  0.21899477  0.34932271     0.16100
C1249       C  0.95394592  0.30684604  0.35543915    -0.13500
C1250       C  0.93875667  0.33579146  0.35039707    -0.28700
H1251       H  0.44480999  0.29335194  0.35104175     0.15500
H1252       H  0.95093859  0.35847637  0.35755984     0.16100
C1253       C  0.75209365  0.03303809  0.38915703    -0.13500
C1254       C  0.73051835  0.05638066  0.39976497    -0.28700
H1255       H  0.76863762  0.03874291  0.36921356     0.15500
H1256       H  0.71262164  0.05042512  0.41841757     0.16100
C1257       C  0.77522273  0.38758589  0.38193842    -0.13500
C1258       C  0.80679554  0.38042712  0.37362754    -0.28700
H1259       H  0.75609389  0.37656534  0.36715748     0.15500
H1260       H  0.82688512  0.39101525  0.38752193     0.16100
C1261       C  0.63771782  0.40223796  0.40200647    -0.13500
C1262       C  0.63014290  0.38028384  0.37874018    -0.28700
H1263       H  0.61855416  0.40941592  0.41927472     0.15500
H1264       H  0.64862739  0.37245559  0.36117820     0.16100
C1265       C  0.66893243  0.02771759  0.59819363    -0.13500
C1266       C  0.67588816  0.05400767  0.57968630    -0.28700
H1267       H  0.66699324  0.03119026  0.62421338     0.15500
H1268       H  0.67584039  0.05148886  0.55354946     0.16100
C1269       C  0.61439472  0.34249411  0.50362246    -0.13500
C1270       C  0.58166864  0.33646738  0.50105663    -0.28700
H1271       H  0.63091618  0.33310692  0.48483465     0.15500
H1272       H  0.56434081  0.34821214  0.51770675     0.16100
C1273       C  0.63874691  0.39510412  0.62904209    -0.13500
C1274       C  0.60584378  0.39046575  0.63261385    -0.28700
H1275       H  0.65496250  0.38433059  0.64689053     0.15500
H1276       H  0.58880760  0.40053740  0.61507798     0.16100
C1277       C  0.72896683  0.44590105  0.50231636    -0.13500
C1278       C  0.69773260  0.44850711  0.51360517    -0.28700
H1279       H  0.74891738  0.44775710  0.51924175     0.15500
H1280       H  0.67846514  0.45502777  0.49710197     0.16100
C1281       C  0.80955668  0.20765227  0.62977817    -0.13500
C1282       C  0.79463062  0.19133413  0.60550657    -0.28700
H1283       H  0.80099955  0.20403799  0.65443188     0.15500
H1284       H  0.80152001  0.19662184  0.58068138     0.16100
C1285       C  0.95818001  0.31519178  0.65648880    -0.13500
C1286       C  0.98415681  0.32932799  0.64157056    -0.28700
H1287       H  0.95886985  0.31109141  0.68230719     0.15500
H1288       H  0.98245156  0.33454699  0.61592761     0.16100
C1289       C  0.83269200  0.32542117  0.51309457    -0.13500
C1290       C  0.82724093  0.35739293  0.50691502    -0.28700
H1291       H  0.82141229  0.30669274  0.49789857     0.15500
H1292       H  0.83733712  0.37564956  0.52347019     0.16100
C1293       C  0.77880764  0.39358010  0.61743713    -0.13500
C1294       C  0.78233563  0.36745065  0.63670475    -0.28700
H1295       H  0.80026875  0.40225281  0.60405582     0.15500
H1296       H  0.76100497  0.35729822  0.64905259     0.16100
O1297       O  0.84673030  0.74417526  0.60195709    -0.54900
C1298       C  0.84476743  0.82096493  0.53802758     0.77700
O1299       O  0.83213184  0.85663132  0.61963576    -0.56100
C1300       C  0.84029604  0.74199166  0.63198030     0.77700
C1301       C  0.93014249  0.81812721  0.62341203     0.80100
Cd1302     Cd  0.86131459  0.80443594  0.60499210     1.37500
O1303       O  0.84813070  0.79116634  0.54626901    -0.54900
O1304       O  0.92303583  0.80313454  0.59742784    -0.53700
C1305       C  0.80566498  0.84244673  0.62830094     0.80000
O1306       O  0.90584237  0.82630196  0.64119249    -0.56100
O1307       O  0.85185574  0.84213659  0.55944689    -0.54600
O1308       O  0.84700287  0.76696154  0.64913555    -0.54500
O1309       O  0.80655453  0.81154052  0.62955973    -0.53700
C1310       C  0.67972781  0.91842048  0.53743263     0.32900
C1311       C  0.64537399  0.90507495  0.59314959     0.32900
C1312       C  0.64870691  0.89682743  0.53392518    -0.03300
C1313       C  0.69902509  0.90114188  0.56389341    -0.04100
C1314       C  0.66614833  0.94900302  0.55546151    -0.04000
C1315       C  0.63106789  0.88943578  0.56198643    -0.03300
C1316       C  0.68178478  0.89355583  0.59204379    -0.04100
C1317       C  0.64875148  0.94199979  0.58423624    -0.04000
C1318       C  0.61010578  0.86342586  0.55383653    -0.29400
N1319       N  0.61414681  0.85615884  0.52185520     0.17100
C1320       C  0.63790365  0.87598257  0.50988390    -0.29400
H1321       H  0.64856477  0.87333192  0.48596182     0.19100
C1322       C  0.70539565  0.88766665  0.61564528    -0.28300
N1323       N  0.73581799  0.89286203  0.60268239     0.15900
C1324       C  0.73188703  0.90268501  0.57198027    -0.28300
C1325       C  0.65286587  0.47356488  0.61848883    -0.28600
N1326       N  0.66722234  0.50053954  0.60549677     0.16400
H1327       H  0.64840970  0.47057472  0.64410851     0.19000
C1328       C  0.67527612  0.49307865  0.57446281    -0.28600
H1329       H  0.69194442  0.50749957  0.55978966     0.19000
H1330       H  0.75145832  0.91271675  0.55753424     0.19000
H1331       H  0.59559284  0.84877142  0.57028203     0.19100
H1332       H  0.70085907  0.88229345  0.64082836     0.19000
C1333       C  0.73210701  0.93220869  0.45761509     0.32900
C1334       C  0.76186737  0.90857860  0.40238744     0.32900
C1335       C  0.75949125  0.90634716  0.46202007    -0.03300
C1336       C  0.70930670  0.91600346  0.43285246    -0.04100
C1337       C  0.74953894  0.95831545  0.43707199    -0.04000
C1338       C  0.77449201  0.89371875  0.43430056    -0.03300
C1339       C  0.72405191  0.90363614  0.40495346    -0.04100
C1340       C  0.76495408  0.94643850  0.40846060    -0.04000
C1341       C  0.80031802  0.87347360  0.44454910    -0.29400
N1342       N  0.80104601  0.87418829  0.47747821     0.17100
C1343       C  0.77672122  0.89462722  0.48790751    -0.29400
H1344       H  0.77355857  0.90232919  0.51251068     0.19100
C1345       C  0.69884009  0.89016203  0.38646554    -0.28300
N1346       N  0.66958810  0.89465590  0.40254455     0.15900
C1347       C  0.67588447  0.91078109  0.43061205    -0.28300
C1348       C  0.77418168  0.46792589  0.39721362    -0.28600
N1349       N  0.76426577  0.49623332  0.41207881     0.16400
H1350       H  0.77693744  0.46518209  0.37128628     0.19000
C1351       C  0.75637934  0.48891695  0.44302509    -0.28600
H1352       H  0.74226024  0.50497681  0.45894934     0.19000
H1353       H  0.65738870  0.91772349  0.44844804     0.19000
H1354       H  0.81852771  0.86120843  0.42939046     0.19100
H1355       H  0.70164290  0.87789572  0.36331388     0.19000
O1356       O  0.57546239  0.73331398  0.40660156    -0.54900
C1357       C  0.56218912  0.80823269  0.46373842     0.77700
O1358       O  0.57772215  0.84535376  0.39317913    -0.56100
C1359       C  0.58401770  0.72762607  0.37748014     0.77700
C1360       C  0.48548059  0.79363803  0.37140073     0.80100
Cd1361     Cd  0.55353599  0.78990846  0.39601005     1.37500
O1362       O  0.58347479  0.79167454  0.44802702    -0.54900
O1363       O  0.49637565  0.76844525  0.38561676    -0.53700
C1364       C  0.60203999  0.83743028  0.37537627     0.80000
O1365       O  0.50578070  0.81704932  0.36820440    -0.56100
O1366       O  0.53445791  0.81186392  0.45013339    -0.54600
O1367       O  0.57558226  0.74895903  0.35702268    -0.54500
O1368       O  0.60099749  0.80917705  0.36252386    -0.53700
O1369       O  0.66309573  0.65924097  0.35156915    -0.54900
C1370       C  0.74236801  0.65325328  0.29849828     0.77700
O1371       O  0.77221031  0.68381208  0.37063584    -0.56100
C1372       C  0.65404278  0.66507094  0.38049791     0.77700
C1373       C  0.74106741  0.58623062  0.39565282     0.80100
Cd1374     Cd  0.72249616  0.64862680  0.36561377     1.37500
O1375       O  0.71449695  0.66388726  0.30819134    -0.54900
O1376       O  0.72743761  0.58690254  0.36814084    -0.53700
C1377       C  0.75692408  0.70941992  0.37982537     0.80000
O1378       O  0.74519142  0.61382739  0.40945274    -0.56100
O1379       O  0.75875545  0.63652727  0.31842627    -0.54600
O1380       O  0.67503605  0.65888457  0.40218958    -0.54500
O1381       O  0.72694796  0.70568504  0.38749419    -0.53700
C1382       C  0.82918446  0.77640245  0.20679439     0.32900
C1383       C  0.82136812  0.73035706  0.15885862     0.32900
C1384       C  0.80841007  0.74625731  0.21526659    -0.03300
C1385       C  0.81325291  0.78831362  0.17585598    -0.04100
C1386       C  0.86207662  0.76109151  0.19379824    -0.04000
C1387       C  0.80497085  0.72243534  0.19147812    -0.03300
C1388       C  0.80888426  0.76516677  0.15157980    -0.04100
C1389       C  0.85793963  0.73724248  0.16849164    -0.04000
C1390       C  0.78385718  0.69862546  0.20363153    -0.29400
N1391       N  0.77400755  0.70826450  0.23372259     0.17100
C1392       C  0.78835596  0.73747908  0.24071638    -0.29400
H1393       H  0.78359569  0.75173590  0.26241869     0.19100
C1394       C  0.79379827  0.78088722  0.12614971    -0.28300
N1395       N  0.79009346  0.81296939  0.13443614     0.15900
C1396       C  0.80168726  0.81771191  0.16480974    -0.28300
C1397       C  0.88587829  0.73962462  0.14901510    -0.28600
N1398       N  0.90712273  0.76213771  0.16153404     0.16400
H1399       H  0.88894508  0.72804865  0.12551516     0.19000
C1400       C  0.89236917  0.77602670  0.18791038    -0.28600
H1401       H  0.90104518  0.79828664  0.19950302     0.19000
H1402       H  0.80074092  0.84070477  0.17820290     0.19000
H1403       H  0.77506894  0.67692359  0.19105685     0.19100
H1404       H  0.78589120  0.76996205  0.10353891     0.19000
C1405       C  0.84092143  0.83436545  0.28265472     0.32900
C1406       C  0.82102926  0.86871504  0.33659969     0.32900
C1407       C  0.82060152  0.86597242  0.27639905    -0.03300
C1408       C  0.81903833  0.81565859  0.30675201    -0.04100
C1409       C  0.86888310  0.84639646  0.30467300    -0.04000
C1410       C  0.81013789  0.88286129  0.30402340    -0.03300
C1411       C  0.80853746  0.83304212  0.33430602    -0.04100
C1412       C  0.85895775  0.86431929  0.33213228    -0.04000
C1413       C  0.79901909  0.91318797  0.29456184    -0.29400
N1414       N  0.80273011  0.91614464  0.26208263     0.17100
C1415       C  0.81685699  0.88767408  0.25090600    -0.29400
H1416       H  0.82762504  0.88455803  0.22705596     0.19100
C1417       C  0.79915750  0.80986295  0.35692804    -0.28300
N1418       N  0.80370099  0.77940893  0.34375514     0.15900
C1419       C  0.81692723  0.78284532  0.31389241    -0.28300
C1420       C  0.88636170  0.86613092  0.35207558    -0.28600
N1421       N  0.91198979  0.84964071  0.33775291     0.16400
H1422       H  0.88698544  0.87663450  0.37619374     0.19000
C1423       C  0.90142506  0.83715321  0.30908383    -0.28600
H1424       H  0.91597409  0.82134935  0.29328585     0.19000
H1425       H  0.82644168  0.76278393  0.29916117     0.19000
H1426       H  0.79350809  0.93352112  0.31083568     0.19100
H1427       H  0.79214896  0.81474033  0.38180278     0.19000
O1428       O  0.67146733  0.92390852  0.17982206    -0.54900
C1429       C  0.76017158  0.95618647  0.21020749     0.77700
O1430       O  0.77201522  0.92445241  0.12648563    -0.56100
C1431       C  0.65401563  0.92096837  0.15462817     0.77700
C1432       C  0.72624639  0.00588556  0.11428615     0.80100
Cd1433     Cd  0.72130779  0.94621082  0.15162779     1.37500
O1434       O  0.73974018  0.97709295  0.19961182    -0.54900
O1435       O  0.72997827  0.97784731  0.10129890    -0.53700
C1436       C  0.76090721  0.89561192  0.12326706     0.80000
O1437       O  0.71862718  0.00636661  0.14400613    -0.56100
O1438       O  0.75993865  0.92828007  0.19653548    -0.54600
O1439       O  0.66609563  0.93289523  0.12909604    -0.54500
O1440       O  0.73071372  0.89121015  0.13010083    -0.53700
O1441       O  0.82547278  0.85851713  0.92493485    -0.54900
C1442       C  0.83975381  0.77556011  0.96260455     0.77700
O1443       O  0.81278635  0.75787991  0.87924833    -0.56100
C1444       C  0.81907231  0.87248584  0.89845418     0.77700
C1445       C  0.91012717  0.79488272  0.87126344     0.80100
Cd1446     Cd  0.84454059  0.80590359  0.90008808     1.37500
O1447       O  0.84760135  0.80563194  0.96073515    -0.54900
O1448       O  0.90664328  0.80120757  0.90107570    -0.53700
C1449       C  0.78605849  0.77367809  0.87534471     0.80000
O1450       O  0.88389649  0.79498241  0.85473512    -0.56100
O1451       O  0.83623725  0.76022386  0.93612038    -0.54600
O1452       O  0.82881691  0.85773731  0.87299480    -0.54500
O1453       O  0.78757501  0.80439880  0.87910329    -0.53700
C1454       C  0.67783064  0.67611712  0.96407129     0.32900
C1455       C  0.63634189  0.68580628  0.91282555     0.32900
C1456       C  0.64296642  0.68881236  0.97205559    -0.03300
C1457       C  0.68962339  0.70072639  0.93882203    -0.04100
C1458       C  0.67121114  0.64532033  0.94291080    -0.04000
C1459       C  0.62158628  0.69350489  0.94637355    -0.03300
C1460       C  0.66863932  0.70592720  0.91247366    -0.04100
C1461       C  0.64964366  0.65037970  0.91679427    -0.04000
C1462       C  0.59336210  0.70869926  0.95879023    -0.29400
N1463       N  0.59776334  0.71348641  0.99097926     0.17100
C1464       C  0.62787076  0.70180740  0.99910949    -0.29400
H1465       H  0.63872241  0.70496496  0.02257127     0.19100
C1466       C  0.68865528  0.71621585  0.88711267    -0.28300
N1467       N  0.72035766  0.71750684  0.89756067     0.15900
C1468       C  0.72119278  0.70725307  0.92838639    -0.28300
C1469       C  0.65007525  0.62208356  0.89822645    -0.28600
N1470       N  0.67175807  0.60051940  0.91142121     0.16400
H1471       H  0.63673861  0.61794619  0.87595028     0.19000
C1472       C  0.68512036  0.61447891  0.93837343    -0.28600
H1473       H  0.70391134  0.60315014  0.95309946     0.19000
H1474       H  0.74366402  0.70267245  0.94156887     0.19000
H1475       H  0.57184620  0.71660622  0.94546135     0.19100
H1476       H  0.68117610  0.71946479  0.86226878     0.19000
C1477       C  0.73160214  0.66225845  0.04262588     0.32900
C1478       C  0.76420828  0.68704673  0.09522715     0.32900
C1479       C  0.76124751  0.68446296  0.03587907    -0.03300
C1480       C  0.71063961  0.68232540  0.06662492    -0.04100
C1481       C  0.74696720  0.63623138  0.06470486    -0.04000
C1482       C  0.77758734  0.69788010  0.06226677    -0.03300
C1483       C  0.72712361  0.69548276  0.09299606    -0.04100
C1484       C  0.76374327  0.64896679  0.09232474    -0.04000
C1485       C  0.80356624  0.71637279  0.05014381    -0.29400
N1486       N  0.80345458  0.71315473  0.01737071     0.17100
C1487       C  0.77816716  0.69334662  0.00871442    -0.29400
H1488       H  0.77286508  0.68550816  0.98430020     0.19100
C1489       C  0.70327628  0.70779672  0.11399644    -0.28300
N1490       N  0.67300678  0.70154922  0.10131503     0.15900
C1491       C  0.67734906  0.68459368  0.07328157    -0.28300
C1492       C  0.75945498  0.62588694  0.11633774    -0.28600
N1493       N  0.74227579  0.59988144  0.10453528     0.16400
H1494       H  0.76555702  0.62936657  0.14158033     0.19000
C1495       C  0.73382961  0.60650266  0.07359967    -0.28600
H1496       H  0.71586952  0.59287279  0.05961909     0.19000
H1497       H  0.65773572  0.67315074  0.05965790     0.19000
H1498       H  0.82165871  0.73007244  0.06392161     0.19100
H1499       H  0.70744178  0.71903224  0.13739269     0.19000
O1500       O  0.57153387  0.85817279  0.09687548    -0.54900
C1501       C  0.56285410  0.77603865  0.04860901     0.77700
O1502       O  0.58068032  0.74796587  0.12209816    -0.56100
C1503       C  0.58463242  0.86586421  0.12371295     0.77700
C1504       C  0.48871576  0.79447337  0.14181029     0.80100
Cd1505     Cd  0.55471179  0.80186884  0.11357920     1.37500
O1506       O  0.56290285  0.80688303  0.05353627    -0.54900
O1507       O  0.51495136  0.79182454  0.15804311    -0.53700
C1508       C  0.60791528  0.75925950  0.13208566     0.80000
O1509       O  0.49236911  0.80233684  0.11248839    -0.56100
O1510       O  0.55605700  0.75840879  0.07268981    -0.54600
O1511       O  0.58069380  0.84568940  0.14649954    -0.54500
O1512       O  0.60881499  0.78967408  0.13831919    -0.53700
O1513       O  0.76890351  0.67245120  0.66909687    -0.54900
C1514       C  0.68287554  0.65969762  0.71898907     0.77700
O1515       O  0.66504706  0.68712336  0.63831763    -0.56100
C1516       C  0.77948744  0.67124359  0.64012832     0.77700
C1517       C  0.69488916  0.58875371  0.62522156     0.80100
Cd1518     Cd  0.71212900  0.65184680  0.65528782     1.37500
O1519       O  0.71386909  0.65457950  0.71670259    -0.54900
O1520       O  0.70777437  0.58961596  0.65312622    -0.53700
C1521       C  0.68229978  0.71265220  0.63410737     0.80000
O1522       O  0.69119556  0.61616590  0.61155013    -0.56100
O1523       O  0.66669110  0.65723373  0.69307906    -0.54600
O1524       O  0.76124775  0.65647624  0.61994502    -0.54500
O1525       O  0.71319468  0.70900332  0.63579695    -0.53700
C1526       C  0.57121148  0.77751429  0.79842262     0.32900
C1527       C  0.59043122  0.74102946  0.85055575     0.32900
C1528       C  0.59136645  0.74621239  0.79111051    -0.03300
C1529       C  0.59226762  0.79536864  0.82390204    -0.04100
C1530       C  0.54274532  0.76399205  0.81911786    -0.04000
C1531       C  0.60230399  0.72794221  0.81731790    -0.03300
C1532       C  0.60253343  0.77659166  0.84981021    -0.04100
C1533       C  0.55246920  0.74567547  0.84634931    -0.04000
C1534       C  0.62153034  0.70240854  0.80457744    -0.29400
N1535       N  0.62038073  0.70401522  0.77178909     0.17100
C1536       C  0.60127081  0.72997051  0.76365022    -0.29400
H1537       H  0.59394629  0.73582296  0.73943010     0.19100
C1538       C  0.62037561  0.79667671  0.87018634    -0.28300
N1539       N  0.61990640  0.82736207  0.85807606     0.15900
C1540       C  0.60276185  0.82696287  0.82991595    -0.28300
C1541       C  0.02756186  0.75670409  0.86957227    -0.28600
N1542       N  0.00161623  0.77363153  0.85675857     0.16400
H1543       H  0.02738723  0.74521031  0.89304323     0.19000
C1544       C  0.01156916  0.78638723  0.82803941    -0.28600
H1545       H  0.99715684  0.80282355  0.81326837     0.19000
H1546       H  0.59839434  0.84803551  0.81500983     0.19000
H1547       H  0.63490438  0.68384230  0.81769162     0.19100
H1548       H  0.63251724  0.78978762  0.89236959     0.19000
C1549       C  0.58522081  0.83099193  0.71899529     0.32900
C1550       C  0.59305711  0.86576084  0.66285605     0.32900
C1551       C  0.59591011  0.86688444  0.72269151    -0.03300
C1552       C  0.61073296  0.81743696  0.69458365    -0.04100
C1553       C  0.55385378  0.83409161  0.69793178    -0.04000
C1554       C  0.60009797  0.88478191  0.69447241    -0.03300
C1555       C  0.61478194  0.83491629  0.66581198    -0.04100
C1556       C  0.55803859  0.85167208  0.66907396    -0.04000
C1557       C  0.61144796  0.91565332  0.70363882    -0.29400
N1558       N  0.61359866  0.91652149  0.73640326     0.17100
C1559       C  0.60397304  0.88712181  0.74809775    -0.29400
H1560       H  0.60363250  0.88092068  0.77333350     0.19100
C1561       C  0.62574505  0.81246786  0.64255893    -0.28300
N1562       N  0.62899510  0.78273596  0.65657489     0.15900
C1563       C  0.61931462  0.78547546  0.68765826    -0.28300
C1564       C  0.02970240  0.85972694  0.65294544    -0.28600
N1565       N  0.00764730  0.84228987  0.67081291     0.16400
H1566       H  0.02569372  0.86760539  0.62837819     0.19000
C1567       C  0.02243543  0.83354915  0.69880225    -0.28600
H1568       H  0.01174901  0.81663944  0.71588773     0.19000
H1569       H  0.61659243  0.76493437  0.70347947     0.19000
H1570       H  0.61774665  0.93577749  0.68787998     0.19100
H1571       H  0.62775941  0.81669290  0.61684457     0.19000
O1572       O  0.75087756  0.95002147  0.84008711    -0.54900
C1573       C  0.67032012  0.96110518  0.79109063     0.77700
O1574       O  0.63850356  0.94245275  0.86723010    -0.56100
C1575       C  0.75850767  0.93654037  0.86653938     0.77700
C1576       C  0.68699808  0.02858267  0.88977543     0.80100
Cd1577     Cd  0.69373254  0.96574766  0.85674550     1.37500
O1578       O  0.70114438  0.96086324  0.79676625    -0.54900
O1579       O  0.69388459  0.02703889  0.85990709    -0.53700
C1580       C  0.64904223  0.91351387  0.87102474     0.80000
O1581       O  0.68456386  0.00154234  0.90428218    -0.56100
O1582       O  0.65154064  0.96793722  0.81475796    -0.54600
O1583       O  0.73751840  0.93916537  0.88929625    -0.54500
O1584       O  0.68003361  0.90983975  0.87295549    -0.53700
C1585       C  0.65670931  0.95019733  0.75958280    -0.13500
C1586       C  0.62433528  0.94297847  0.75695276    -0.28700
H1587       H  0.67388622  0.94117558  0.74123162     0.15500
H1588       H  0.60775807  0.94997790  0.77663795     0.16100
C1589       C  0.63822025  0.85450397  0.87098448    -0.13500
C1590       C  0.62657149  0.88528631  0.86935378    -0.28700
H1591       H  0.66303876  0.84991145  0.87992062     0.15500
H1592       H  0.60127281  0.88955636  0.86165149     0.16100
C1593       C  0.58709794  0.81191205  0.75082079    -0.13500
C1594       C  0.56264468  0.79789932  0.76845727    -0.28700
H1595       H  0.61213483  0.80918868  0.75995450     0.15500
H1596       H  0.53703059  0.80083227  0.76175153     0.16100
C1597       C  0.66624409  0.67095965  0.74933258    -0.13500
C1598       C  0.63483089  0.68228082  0.74792871    -0.28700
H1599       H  0.68082074  0.67476358  0.77100369     0.15500
H1600       H  0.62156929  0.67996100  0.72523618     0.16100
C1601       C  0.63691156  0.75173089  0.64168429    -0.13500
C1602       C  0.66771046  0.74576443  0.63101066    -0.28700
H1603       H  0.62128412  0.73097825  0.64785014     0.15500
H1604       H  0.68445551  0.76631806  0.62765795     0.16100
C1605       C  0.63825249  0.73917685  0.13272182    -0.13500
C1606       C  0.64128108  0.71289164  0.11290681    -0.28700
H1607       H  0.66002416  0.75009474  0.14359795     0.15500
H1608       H  0.61941561  0.70372069  0.10057769     0.16100
C1609       C  0.67738708  0.56751553  0.89963263    -0.13500
C1610       C  0.70785243  0.55594724  0.89240820    -0.28700
H1611       H  0.65595435  0.55230955  0.89443883     0.15500
H1612       H  0.68369351  0.05970779  0.93346512     0.16100
C1613       C  0.57541126  0.72813886  0.01402646    -0.13500
C1614       C  0.57286616  0.76100467  0.01725200    -0.28700
H1615       H  0.56701723  0.71266778  0.03366717     0.15500
H1616       H  0.58303369  0.77671254  0.99862336     0.16100
C1617       C  0.60182035  0.72437494  0.88135093    -0.13500
C1618       C  0.61415455  0.69367815  0.88424303    -0.28700
H1619       H  0.60451440  0.74072131  0.90202790     0.15500
H1620       H  0.61060991  0.67543003  0.86540563     0.16100
C1621       C  0.69980188  0.67713382  0.99392356    -0.13500
C1622       C  0.71265738  0.65255773  0.01187130    -0.28700
H1623       H  0.70386249  0.70206207  0.00280127     0.15500
H1624       H  0.70894304  0.62698604  0.00538950     0.16100
C1625       C  0.79805032  0.90242967  0.89749525    -0.13500
C1626       C  0.78892814  0.91626911  0.86944650    -0.28700
H1627       H  0.78583219  0.90998171  0.91983084     0.15500
H1628       H  0.80141879  0.90903750  0.84715843     0.16100
C1629       C  0.94275823  0.78805886  0.85593125    -0.13500
C1630       C  0.97006748  0.77953016  0.87261904    -0.28700
H1631       H  0.94391818  0.78903603  0.82976036     0.15500
H1632       H  0.96828669  0.77630263  0.89860201     0.16100
C1633       C  0.83240839  0.75941325  0.99371240    -0.13500
C1634       C  0.82521708  0.72721227  0.99382776    -0.28700
H1635       H  0.82750897  0.77455957  0.01497069     0.15500
H1636       H  0.82930876  0.71294248  0.97179177     0.16100
C1637       C  0.75376351  0.75746480  0.87075850    -0.13500
C1638       C  0.74966803  0.72632220  0.88006708    -0.28700
H1639       H  0.73208763  0.77321587  0.86899707     0.15500
H1640       H  0.77164090  0.71151839  0.88431461     0.16100
C1641       C  0.60612065  0.89520280  0.12713953    -0.13500
C1642       C  0.62288874  0.90171291  0.15458685    -0.28700
H1643       H  0.61226149  0.90842387  0.10524249     0.15500
H1644       H  0.61681227  0.88840630  0.17644979     0.16100
C1645       C  0.72016545  0.54455529  0.10875271    -0.13500
C1646       C  0.73201817  0.57182142  0.12316816    -0.28700
H1647       H  0.73264895  0.03465490  0.06958948     0.15500
H1648       H  0.73608658  0.57200529  0.14910626     0.16100
C1649       C  0.80858656  0.94812982  0.24874870    -0.13500
C1650       C  0.78572037  0.96664253  0.23365451    -0.28700
H1651       H  0.82874553  0.96182342  0.25975871     0.15500
H1652       H  0.79013518  0.99298503  0.23398606     0.16100
C1653       C  0.93761477  0.77258474  0.14601935    -0.13500
C1654       C  0.96219308  0.78789174  0.16233011    -0.28700
H1655       H  0.94151970  0.76620497  0.12071918     0.09100
H1656       H  0.45503351  0.78736310  0.18305639     0.16100
C1657       C  0.81241767  0.70611083  0.13180867    -0.13500
C1658       C  0.77987470  0.70283114  0.12481625    -0.28700
H1659       H  0.83138018  0.69418442  0.11714993     0.15500
H1660       H  0.76284769  0.71598568  0.14064028     0.16100
C1661       C  0.78315915  0.86795327  0.11636290    -0.13500
C1662       C  0.77178358  0.83710841  0.11715626    -0.28700
H1663       H  0.80940366  0.87222537  0.12015477     0.15500
H1664       H  0.74580525  0.83214726  0.11256851     0.16100
C1665       C  0.82668068  0.80211422  0.23368122    -0.13500
C1666       C  0.85064449  0.81366668  0.25307848    -0.28700
H1667       H  0.80151794  0.81026017  0.23893003     0.15500
H1668       H  0.87616280  0.80627325  0.24944296     0.16100
C1669       C  0.75692607  0.66257448  0.26700404    -0.13500
C1670       C  0.75076598  0.69248111  0.25488519    -0.28700
H1671       H  0.77789075  0.64853710  0.25772805     0.15500
H1672       H  0.73235478  0.70797813  0.26683838     0.16100
C1673       C  0.79724428  0.74777144  0.35767492    -0.13500
C1674       C  0.77178984  0.74254541  0.37801991    -0.28700
H1675       H  0.80936508  0.72661457  0.34646080     0.15500
H1676       H  0.75773064  0.76329525  0.38755626     0.16100
C1677       C  0.62225239  0.68146699  0.38911308    -0.13500
C1678       C  0.60533067  0.69940893  0.36754719    -0.28700
H1679       H  0.61665548  0.68449718  0.41468422     0.15500
H1680       H  0.61197930  0.69754576  0.34211168     0.16100
C1681       C  0.95980600  0.81632572  0.35272435    -0.13500
C1682       C  0.94483364  0.84595573  0.35086631    -0.28700
H1683       H  0.43781601  0.77238378  0.35495236     0.15500
H1684       H  0.95733546  0.86765748  0.36014316     0.16100
C1685       C  0.75566191  0.52636108  0.39561222    -0.13500
C1686       C  0.75135515  0.55522827  0.41157848    -0.28700
H1687       H  0.75277693  0.52563395  0.36952529     0.15500
H1688       H  0.75634244  0.55652750  0.43730062     0.16100
C1689       C  0.77661924  0.89347471  0.37161775    -0.13500
C1690       C  0.80922338  0.88848240  0.36607325    -0.28700
H1691       H  0.75948823  0.88343456  0.35400703     0.15500
H1692       H  0.82725020  0.89799297  0.38307617     0.16100
C1693       C  0.63717352  0.88217249  0.39485150    -0.13500
C1694       C  0.63190205  0.85823157  0.37281664    -0.28700
H1695       H  0.61698785  0.88909760  0.41106466     0.15500
H1696       H  0.65190859  0.84980142  0.35720579     0.16100
C1697       C  0.67790773  0.52941943  0.62340563    -0.13500
C1698       C  0.68471394  0.55796950  0.60843150    -0.28700
H1699       H  0.67930148  0.52832254  0.64958412     0.15500
H1700       H  0.68086842  0.55957270  0.58256021     0.16100
C1701       C  0.60225953  0.82803703  0.50400358    -0.13500
C1702       C  0.57052770  0.82565585  0.49444085    -0.28700
H1703       H  0.62078999  0.81335573  0.49126341     0.15500
H1704       H  0.55207034  0.84186955  0.50527341     0.16100
C1705       C  0.62969310  0.89752689  0.62592351    -0.13500
C1706       C  0.59967287  0.88400358  0.63138651    -0.28700
H1707       H  0.64612713  0.89973820  0.64645468     0.15500
H1708       H  0.58132793  0.88310918  0.61242791     0.16100
C1709       C  0.71393247  0.94213473  0.48888976    -0.13500
C1710       C  0.69990569  0.91784572  0.50620973    -0.28700
H1711       H  0.71212534  0.96761915  0.49638742     0.15500
H1712       H  0.70429054  0.89293961  0.49731928     0.16100
C1713       C  0.82282378  0.71362621  0.64664031    -0.13500
C1714       C  0.80925674  0.68933725  0.62885567    -0.28700
H1715       H  0.81584960  0.71612858  0.67194886     0.15500
H1716       H  0.81542282  0.68743211  0.60331568     0.16100
C1717       C  0.96492433  0.82621120  0.63191959    -0.13500
C1718       C  0.97407358  0.83368580  0.66238160    -0.28700
H1719       H  0.98348918  0.82539998  0.61285412     0.15500
H1720       H  0.95590470  0.83188585  0.68174515     0.16100
C1721       C  0.83063441  0.83078842  0.50622111    -0.13500
C1722       C  0.82659493  0.86281500  0.49894378    -0.28700
H1723       H  0.81901398  0.81210606  0.49123059     0.15500
H1724       H  0.83706712  0.88105963  0.51526929     0.16100
C1725       C  0.76786026  0.88735298  0.61652789    -0.13500
C1726       C  0.77393271  0.85985702  0.63300035    -0.28700
H1727       H  0.78869435  0.90011343  0.60565915     0.15500
H1728       H  0.75316046  0.84549753  0.64174150     0.16100
loop_ 
_geom_bond_atom_site_label_1 
_geom_bond_atom_site_label_2 
_geom_bond_distance 
_geom_bond_site_symmetry_2 
_ccdc_geom_bond_type 
O1            C4   1.268       .  A
O1           Cd6   2.493       .  S
C2           O11   1.264       .  A
C2            O7   1.268       .  A
C2          C425   1.486       .  S
O3            C9   1.264       .  A
O3           Cd6   2.473       .  S
C4           O12   1.265       .  A
C4          C417   1.482       .  S
C5           O10   1.268       .  A
C5            O8   1.263       .  A
C5          C421   1.487       .  S
Cd6          O13   2.504       .  S
Cd6          O12   2.469       .  S
Cd6          O11   2.428       .  S
Cd6           O7   2.522       .  S
Cd6          O10   2.544       .  S
Cd6           O8   2.474       .  S
C9           O13   1.262       .  A
C9          C430   1.483       .  S
C14          C16   1.537       .  S
C14          C18   1.538       .  S
C14          C17   1.547       .  S
C14         C414   1.546       .  S
C15          C19   1.536       .  S
C15          C21   1.549       .  S
C15          C20   1.544       .  S
C15         C409   1.529       .  S
C16          C24   1.373       .  A
C16          C19   1.389       .  A
C17          C28   1.375       .  A
C17          C20   1.400       .  A
C18          C21   1.418       .  A
C18         C464   1.381       .  A
C19          C22   1.392       .  A
C20          C26   1.385       .  A
C21         C461   1.387       .  A
C22          N23   1.360       .  A
C22          H35   1.082       .  S
N23          C24   1.352       .  A
N23         C405   1.440       .  S
C24          H25   1.077       .  S
C26          N27   1.358       .  A
C26          H36   1.082       .  S
N27          C28   1.354       .  A
N27         C429   1.439       .  S
C28          H34   1.070       .  S
C29         C453   1.391       .  A
C29          N30   1.356       .  A
C29          H31   1.082       .  S
N30          C32   1.350       .  A
N30         C401   1.443   1_565  S
C32         C450   1.373       .  A
C32          H33   1.083   1_565  S
C37          C39   1.542       .  S
C37          C41   1.554       .  S
C37          C40   1.548       .  S
C37         C413   1.550       .  S
C38          C42   1.527       .  S
C38          C44   1.552       .  S
C38          C43   1.537       .  S
C38         C393   1.525       .  S
C39          C47   1.375       .  A
C39          C42   1.385       .  A
C40          C51   1.383       .  A
C40          C43   1.396       .  A
C41          C44   1.425       .  A
C41         C487   1.391       .  A
C42          C45   1.391       .  A
C43          C49   1.379       .  A
C44         C484   1.386       .  A
C45          N46   1.356       .  A
C45          H58   1.081       .  S
N46          C47   1.351       .  A
N46         C426   1.436       .  S
C47          H48   1.072       .  S
C49          N50   1.355       .  A
C49          H59   1.080       .  S
N50          C51   1.354       .  A
N50         C397   1.439       .  S
C51          H57   1.075       .  S
C52         C476   1.391       .  A
C52          N53   1.357   1_565  A
C52          H54   1.083       .  S
N53          C55   1.354   1_545  A
N53         C389   1.449       .  S
C55         C473   1.378       .  A
C55          H56   1.082   1_565  S
O60          C63   1.270       .  A
O60         Cd65   2.501       .  S
C61          O70   1.267       .  A
C61          O66   1.264       .  A
C61         C406   1.488       .  S
O62          C68   1.263       .  A
O62         Cd65   2.434       .  S
C63          O71   1.265       .  A
C63         C382   1.480       .  S
C64          O69   1.265   1_655  A
C64          O67   1.265       .  A
C64        C1249   1.480       .  S
Cd65         O72   2.476       .  S
Cd65         O71   2.454       .  S
Cd65         O70   2.524       .  S
Cd65         O66   2.452       .  S
Cd65         O69   2.490       .  S
Cd65         O67   2.485   1_455  S
C68          O72   1.264       .  A
C68         C398   1.473       .  S
O73          C76   1.270       .  A
O73         Cd78   2.478       .  S
C74          O83   1.262       .  A
C74          O79   1.270       .  A
C74         C373   1.474       .  S
O75          C81   1.266       .  A
O75         Cd78   2.461       .  S
C76          O84   1.265       .  A
C76         C381   1.479       .  S
C77          O82   1.264       .  A
C77          O80   1.268       .  A
C77         C390   1.481       .  S
Cd78         O85   2.468       .  S
Cd78         O84   2.455       .  S
Cd78         O83   2.413       .  S
Cd78         O79   2.529       .  S
Cd78         O82   2.461       .  S
Cd78         O80   2.526       .  S
C81          O85   1.261       .  A
C81         C378   1.474       .  S
C86          C88   1.540       .  S
C86          C90   1.536       .  S
C86          C89   1.532       .  S
C86         C369   1.541       .  S
C87          C91   1.543       .  S
C87          C93   1.558       .  S
C87          C92   1.541       .  S
C87         C361   1.538       .  S
C88          C96   1.375       .  A
C88          C91   1.397       .  A
C89         C100   1.373       .  A
C89          C92   1.389       .  A
C90         C104   1.376       .  A
C90          C93   1.421       .  A
C91          C94   1.387       .  A
C92          C98   1.385       .  A
C93         C101   1.392       .  A
C94          N95   1.359       .  A
C94         H107   1.082       .  S
N95          C96   1.356       .  A
N95         C374   1.442       .  S
C96          H97   1.080       .  S
C98          N99   1.360       .  A
C98         H108   1.081       .  S
N99         C100   1.352       .  A
N99         C366   1.436       .  S
C100        H106   1.082       .  S
C101        N102   1.361       .  A
C101        H103   1.083       .  S
N102        C104   1.353       .  A
N102        C357   1.449       .  S
C104        H105   1.082       .  S
C109        C111   1.539       .  S
C109        C113   1.545       .  S
C109        C112   1.526       .  S
C109        C370   1.535       .  S
C110        C114   1.537       .  S
C110        C116   1.553       .  S
C110        C115   1.545       .  S
C110        C394   1.530       .  S
C111        C119   1.376       .  A
C111        C114   1.387       .  A
C112        C123   1.368       .  A
C112        C115   1.393       .  A
C113        C127   1.389       .  A
C113        C116   1.422       .  A
C114        C117   1.388       .  A
C115        C121   1.385       .  A
C116        C124   1.386       .  A
C117        N118   1.360       .  A
C117        H130   1.082       .  S
N118        C119   1.355       .  A
N118        C353   1.441       .  S
C119        H120   1.080       .  S
C121        N122   1.360       .  A
C121        H131   1.080       .  S
N122        C123   1.353       .  A
N122        C377   1.433       .  S
C123        H129   1.082       .  S
C124        N125   1.355       .  A
C124        H126   1.082       .  S
N125        C127   1.358       .  A
N125        C386   1.449       .  S
C127        H128   1.082       .  S
O132        C135   1.268       .  A
O132       Cd137   2.485       .  S
C133        O142   1.262       .  A
C133        O138   1.269       .  A
C133        C354   1.484       .  S
O134        C140   1.266       .  A
O134       Cd137   2.439       .  S
C135        O143   1.262       .  A
C135        C346   1.476       .  S
C136        O141   1.269       .  A
C136        O139   1.263       .  A
C136        C781   1.475       .  S
Cd137       O144   2.466       .  S
Cd137       O143   2.453       .  S
Cd137       O142   2.431       .  S
Cd137       O138   2.527       .  S
Cd137       O141   2.514       .  S
Cd137       O139   2.438       .  S
C140        O144   1.264       .  A
C140        C365   1.473       .  S
O145        C148   1.269       .  A
O145       Cd150   2.500       .  S
C146        O155   1.264       .  A
C146        O151   1.270       .  A
C146        C337   1.494       .  S
O147        C153   1.264       .  A
O147       Cd150   2.469       .  S
C148        O156   1.267       .  A
C148        C329   1.489       .  S
C149        O154   1.264       .  A
C149        O152   1.267       .  A
C149        C333   1.494       .  S
Cd150       O157   2.462       .  S
Cd150       O156   2.501       .  S
Cd150       O155   2.463       .  S
Cd150       O151   2.543       .  S
Cd150       O154   2.501       .  S
Cd150       O152   2.553       .  S
C153        O157   1.264       .  A
C153        C341   1.472       .  S
C158        C160   1.528       .  S
C158        C162   1.545       .  S
C158        C161   1.527       .  S
C158        C325   1.523       .  S
C159        C163   1.530       .  S
C159        C165   1.555       .  S
C159        C164   1.546       .  S
C159        C322   1.530       .  S
C160        C168   1.372   1_556  A
C160        C163   1.382       .  A
C161        C172   1.372       .  A
C161        C164   1.390       .  A
C162        C176   1.384       .  A
C162        C165   1.429       .  A
C163        C166   1.386       .  A
C164        C170   1.384       .  A
C165        C173   1.384       .  A
C166        N167   1.356       .  A
C166        H179   1.082       .  S
N167        C168   1.352   1_556  A
N167        C317   1.433   1_556  S
C168        H169   1.079       .  S
C170        N171   1.357       .  A
C170        H180   1.081       .  S
N171        C172   1.357       .  A
N171        C342   1.436       .  S
C172        H178   1.082       .  S
C173        N174   1.355       .  A
C173        H175   1.082       .  S
N174        C176   1.354       .  A
N174        C313   1.440       .  S
C176        H177   1.082       .  S
C181        C183   1.531       .  S
C181        C185   1.540       .  S
C181        C184   1.534       .  S
C181        C326   1.537       .  S
C182        C186   1.549       .  S
C182        C188   1.567       .  S
C182        C187   1.541       .  S
C182        C362   1.540       .  S
C183        C191   1.371       .  A
C183        C186   1.389       .  A
C184        C195   1.375       .  A
C184        C187   1.400       .  A
C185        C199   1.384       .  A
C185        C188   1.409       .  A
C186        C189   1.396       .  A
C187        C193   1.388       .  A
C188        C196   1.389       .  A
C189        N190   1.365       .  A
C189        H202   1.082       .  S
N190        C191   1.353       .  A
N190        C338   1.443   1_554  S
C191        H192   1.082   1_554  S
C193        N194   1.358       .  A
C193        H203   1.082       .  S
N194        C195   1.350       .  A
N194        C310   1.439       .  S
C195        H201   1.083       .  S
C196        N197   1.367       .  A
C196        H198   1.082       .  S
N197        C199   1.362       .  A
N197        C350   1.456       .  S
C199        H200   1.082       .  S
O204        C207   1.268       .  A
O204       Cd209   2.488       .  S
C205        O214   1.265       .  A
C205        O210   1.265       .  A
C205        C318   1.475       .  S
O206        C212   1.264       .  A
O206       Cd209   2.467       .  S
C207        O215   1.264       .  A
C207        C345   1.476       .  S
C208        O213   1.266       .  A
C208        O211   1.266   1_655  A
C208       C1222   1.477       .  S
Cd209       O216   2.484       .  S
Cd209       O215   2.451       .  S
Cd209       O214   2.484       .  S
Cd209       O210   2.436       .  S
Cd209       O213   2.464   1_455  S
Cd209       O211   2.483       .  S
C212        O216   1.262       .  A
C212        C309   1.478       .  S
O217        C220   1.267       .  A
O217       Cd222   2.498       .  S
C218        O227   1.267       .  A
C218        O223   1.264       .  A
C218        C301   1.476       .  S
O219        C225   1.262       .  A
O219       Cd222   2.450       .  S
C220        O228   1.264       .  A
C220        C418   1.481       .  S
C221        O226   1.264       .  A
C221        O224   1.268       .  A
C221        C402   1.473       .  S
Cd222       O229   2.472       .  S
Cd222       O228   2.466       .  S
Cd222       O227   2.495       .  S
Cd222       O223   2.417       .  S
Cd222       O226   2.441       .  S
Cd222       O224   2.496       .  S
C225        O229   1.263       .  A
C225        C306   1.470       .  S
C230        C232   1.530       .  S
C230        C234   1.551       .  S
C230        C233   1.529       .  S
C230        C298   1.529       .  S
C231        C235   1.529       .  S
C231        C237   1.552       .  S
C231        C236   1.545       .  S
C231        C321   1.531       .  S
C232        C240   1.374       .  A
C232        C235   1.381       .  A
C233        C244   1.372       .  A
C233        C236   1.392       .  A
C234        C237   1.431       .  A
C234       C1112   1.387       .  A
C235        C238   1.386       .  A
C236        C242   1.384       .  A
C237       C1109   1.383       .  A
C238        N239   1.356       .  A
C238        H251   1.082       .  S
N239        C240   1.353       .  A
N239        C302   1.434       .  S
C240        H241   1.081       .  S
C242        N243   1.357       .  A
C242        H252   1.081       .  S
N243        C244   1.358       .  A
N243        C293   1.435       .  S
C244        H250   1.083       .  S
C245       C1101   1.385       .  A
C245        N246   1.357       .  A
C245        H247   1.082       .  S
N246        C248   1.361       .  A
N246        C334   1.453       .  S
C248       C1098   1.391       .  A
C248        H249   1.082       .  S
C253        C255   1.536       .  S
C253        C257   1.546       .  S
C253        C256   1.531       .  S
C253        C297   1.539       .  S
C254        C258   1.535       .  S
C254        C260   1.551       .  S
C254        C259   1.534       .  S
C254        C410   1.526       .  S
C255        C263   1.373       .  A
C255        C258   1.389       .  A
C256        C267   1.376       .  A
C256        C259   1.393       .  A
C257        C260   1.421       .  A
C257       C1135   1.382       .  A
C258        C261   1.385       .  A
C259        C265   1.382       .  A
C260       C1132   1.383       .  A
C261        N262   1.359       .  A
C261        H274   1.082       .  S
N262        C263   1.359       .  A
N262        C290   1.441       .  S
C263        H264   1.082       .  S
C265        N266   1.356       .  A
C265        H275   1.081       .  S
N266        C267   1.351       .  A
N266        C305   1.438       .  S
C267        H273   1.083       .  S
C268       C1124   1.389       .  A
C268        N269   1.360       .  A
C268        H270   1.082       .  S
N269        C271   1.357       .  A
N269        C422   1.450       .  S
C271       C1121   1.380       .  A
C271        H272   1.082       .  S
O276        C279   1.270       .  A
O276       Cd281   2.497       .  S
C277        O286   1.261       .  A
C277        O282   1.271       .  A
C277        C289   1.474       .  S
O278        C284   1.263       .  A
O278       Cd281   2.476       .  S
C279        O287   1.268       .  A
C279        C330   1.489       .  S
C280        O285   1.266       .  A
C280        O283   1.265       .  A
C280        C746   1.487       .  S
Cd281       O288   2.458       .  S
Cd281       O287   2.487       .  S
Cd281       O286   2.420       .  S
Cd281       O282   2.525       .  S
Cd281       O285   2.507       .  S
Cd281       O283   2.493       .  S
C284        O288   1.262       .  A
C284        C294   1.471       .  S
C289        C290   1.342       .  D
C289        H291   1.087       .  S
C290        H292   1.086       .  S
C293        C294   1.343       .  D
C293        H295   1.087       .  S
C294        H296   1.087       .  S
C297        C298   1.356       .  D
C297        H299   1.083       .  S
C298        H300   1.087       .  S
C301        C302   1.345       .  D
C301        H303   1.086       .  S
C302        H304   1.087       .  S
C305        C306   1.345       .  D
C305        H307   1.088       .  S
C306        H308   1.084       .  S
C309        C310   1.344       .  D
C309        H311   1.086       .  S
C310        H312   1.088       .  S
C313        C314   1.346       .  D
C313        H315   1.087       .  S
C314        C712   1.479       .  S
C314        H748   1.086       .  S
H316        C746   1.085       .  S
C317        C318   1.343       .  D
C317        H319   1.088       .  S
C318        H320   1.086       .  S
C321        C322   1.340       .  D
C321        H323   1.084       .  S
C322        H324   1.084       .  S
C325        C326   1.356   1_556  D
C325        H327   1.088   1_556  S
C326        H328   1.084       .  S
C329        C330   1.350       .  D
C329        H331   1.086       .  S
C330        H332   1.086       .  S
C333        C334   1.351       .  D
C333        H335   1.086       .  S
C334        H336   1.087       .  S
C337        C338   1.350       .  D
C337        H339   1.086   1_556  S
C338        H340   1.087       .  S
C341        C342   1.343       .  D
C341        H343   1.087       .  S
C342        H344   1.087       .  S
C345        C346   1.344       .  D
C345        H347   1.087       .  S
C346        H348   1.087       .  S
C349        C568   1.500       .  S
C349        C350   1.358       .  D
C349        H783   1.085       .  S
C350        H352   1.087       .  S
H351        C781   1.086       .  S
C353        C354   1.349       .  D
C353        H355   1.088       .  S
C354        H356   1.085       .  S
C357        C358   1.353       .  D
C357        H359   1.087       .  S
C358       C1072   1.483       .  S
C358       H1224   1.085       .  S
H360       C1222   1.086       .  S
C361        C362   1.358       .  D
C361        H363   1.085       .  S
C362        H364   1.085       .  S
C365        C366   1.342       .  D
C365        H367   1.085       .  S
C366        H368   1.088       .  S
C369        C370   1.349       .  D
C369        H371   1.085       .  S
C370        H372   1.081       .  S
C373        C374   1.345       .  D
C373        H375   1.087       .  S
C374        H376   1.086       .  S
C377        C378   1.340       .  D
C377        H379   1.088       .  S
C378        H380   1.087       .  S
C381        C382   1.344       .  D
C381        H383   1.087       .  S
C382        H384   1.087       .  S
C385        C928   1.491       .  S
C385        C386   1.352       .  D
C385       H1251   1.085       .  S
C386        H388   1.087       .  S
H387       C1249   1.086       .  S
C389        C390   1.350       .  D
C389        H391   1.087       .  S
C390        H392   1.084       .  S
C393        C394   1.349       .  D
C393        H395   1.084       .  S
C394        H396   1.085       .  S
C397        C398   1.345       .  D
C397        H399   1.088       .  S
C398        H400   1.084       .  S
C401        C402   1.346       .  D
C401        H403   1.087       .  S
C402        H404   1.086       .  S
C405        C406   1.348       .  D
C405        H407   1.087       .  S
C406        H408   1.086       .  S
C409        C410   1.346       .  D
C409        H411   1.086       .  S
C410        H412   1.085       .  S
C413        C414   1.351       .  D
C413        H415   1.076       .  S
C414        H416   1.075       .  S
C417        C418   1.346       .  D
C417        H419   1.087       .  S
C418        H420   1.087       .  S
C421        C422   1.350       .  D
C421        H423   1.086       .  S
C422        H424   1.086       .  S
C425        C426   1.346       .  D
C425        H427   1.086       .  S
C426        H428   1.087       .  S
C429        C430   1.345       .  D
C429        H431   1.087       .  S
C430        H432   1.086       .  S
O433        C436   1.267       .  A
O433       Cd438   2.473       .  S
C434        O443   1.265       .  A
C434        O439   1.267       .  A
C434        C857   1.483       .  S
O435        C441   1.264       .  A
O435       Cd438   2.460       .  S
C436        O444   1.268       .  A
C436        C849   1.481       .  S
C437        O442   1.265       .  A
C437        O440   1.264       .  A
C437        C853   1.484       .  S
Cd438       O445   2.481       .  S
Cd438       O444   2.479       .  S
Cd438       O443   2.440       .  S
Cd438       O439   2.512       .  S
Cd438       O442   2.507       .  S
Cd438       O440   2.495       .  S
C441        O445   1.264       .  A
C441        C862   1.477       .  S
C446        C448   1.531       .  S
C446        C450   1.531       .  S
C446        C449   1.549       .  S
C446        C846   1.523       .  S
C447        C451   1.539       .  S
C447        C453   1.550       .  S
C447        C452   1.542       .  S
C447        C841   1.515       .  S
C448        C456   1.373       .  A
C448        C451   1.384       .  A
C449        C460   1.383       .  A
C449        C452   1.393       .  A
C450        C453   1.419       .  A
C451        C454   1.393       .  A
C452        C458   1.382       .  A
C454        N455   1.364       .  A
C454        H467   1.081       .  S
N455        C456   1.352       .  A
N455        C837   1.441       .  S
C456        H457   1.081       .  S
C458        N459   1.356       .  A
C458        H468   1.081       .  S
N459        C460   1.354       .  A
N459        C861   1.442       .  S
C460        H466   1.074       .  S
C461        N462   1.355       .  A
C461        H463   1.083       .  S
N462        C464   1.355       .  A
N462        C833   1.445       .  S
C464        H465   1.082       .  S
C469        C471   1.532       .  S
C469        C473   1.542       .  S
C469        C472   1.545       .  S
C469        C845   1.526       .  S
C470        C474   1.539       .  S
C470        C476   1.547       .  S
C470        C475   1.538       .  S
C470        C825   1.515       .  S
C471        C479   1.374       .  A
C471        C474   1.386       .  A
C472        C483   1.384       .  A
C472        C475   1.392       .  A
C473        C476   1.422       .  A
C474        C477   1.395       .  A
C475        C481   1.379       .  A
C477        N478   1.355       .  A
C477        H490   1.080       .  S
N478        C479   1.347       .  A
N478        C858   1.435       .  S
C479        H480   1.073       .  S
C481        N482   1.354       .  A
C481        H491   1.080       .  S
N482        C483   1.353       .  A
N482        C829   1.438       .  S
C483        H489   1.075       .  S
C484        N485   1.357       .  A
C484        H486   1.083       .  S
N485        C487   1.360       .  A
N485        C821   1.454       .  S
C487        H488   1.082       .  S
O492        C495   1.272       .  A
O492       Cd497   2.530       .  S
C493        O502   1.265       .  A
C493        O498   1.264       .  A
C493        C838   1.489       .  S
O494        C500   1.264       .  A
O494       Cd497   2.431       .  S
C495        O503   1.265       .  A
C495        C814   1.490       .  S
C496        O501   1.264   1_655  A
C496        O499   1.268   1_655  A
C496       C1681   1.487       .  S
Cd497       O504   2.470       .  S
Cd497       O503   2.468       .  S
Cd497       O502   2.517       .  S
Cd497       O498   2.491       .  S
Cd497       O501   2.493       .  S
Cd497       O499   2.520       .  S
C500        O504   1.263       .  A
C500        C830   1.469       .  S
O505        C508   1.266       .  A
O505       Cd510   2.547       .  S
C506        O515   1.263       .  A
C506        O511   1.266       .  A
C506        C805   1.481       .  S
O507        C513   1.264       .  A
O507       Cd510   2.436       .  S
C508        O516   1.260       .  A
C508        C813   1.491       .  S
C509        O514   1.267       .  A
C509        O512   1.269       .  A
C509        C822   1.496       .  S
Cd510       O517   2.512       .  S
Cd510       O516   2.501       .  S
Cd510       O515   2.549       .  S
Cd510       O511   2.467       .  S
Cd510       O514   2.508       .  S
Cd510       O512   2.540       .  S
C513        O517   1.264       .  A
C513        C810   1.474       .  S
C518        C520   1.542       .  S
C518        C522   1.545       .  S
C518        C521   1.544       .  S
C518        C801   1.525       .  S
C519        C523   1.546       .  S
C519        C525   1.536       .  S
C519        C524   1.530       .  S
C519        C793   1.520       .  S
C520        C528   1.389       .  A
C520        C523   1.396       .  A
C521        C532   1.375       .  A
C521        C524   1.391       .  A
C522        C536   1.382       .  A
C522        C525   1.393       .  A
C523        C526   1.373       .  A
C524        C530   1.381       .  A
C525        C533   1.381       .  A
C526        N527   1.360       .  A
C526        H539   1.083       .  S
N527        C528   1.362       .  A
N527        C806   1.438       .  S
C528        H529   1.082       .  S
C530        N531   1.356       .  A
C530        H540   1.082       .  S
N531        C532   1.355       .  A
N531        C798   1.436       .  S
C532        H538   1.074       .  S
C533        N534   1.360       .  A
C533        H535   1.082       .  S
N534        C536   1.363       .  A
N534        C789   1.447       .  S
C536        H537   1.081       .  S
C541        C543   1.542       .  S
C541        C545   1.543       .  S
C541        C544   1.545       .  S
C541        C802   1.521       .  S
C542        C546   1.523       .  S
C542        C548   1.547       .  S
C542        C547   1.545       .  S
C542        C826   1.518       .  S
C543        C551   1.378       .  A
C543        C546   1.382       .  A
C544        C555   1.395       .  A
C544        C547   1.408       .  A
C545        C559   1.384       .  A
C545        C548   1.400       .  A
C546        C549   1.384       .  A
C547        C553   1.380       .  A
C548        C556   1.377       .  A
C549        N550   1.356       .  A
C549        H562   1.082       .  S
N550        C551   1.356       .  A
N550        C785   1.440       .  S
C551        H552   1.078       .  S
C553        N554   1.350       .  A
C553        H563   1.077       .  S
N554        C555   1.354       .  A
N554        C809   1.442       .  S
C555        H561   1.083       .  S
C556        N557   1.360       .  A
C556        H558   1.082       .  S
N557        C559   1.365       .  A
N557        C818   1.446       .  S
C559        H560   1.082       .  S
O564        C567   1.268       .  A
O564       Cd569   2.466       .  S
C565        O574   1.265       .  A
C565        O570   1.270       .  A
C565        C786   1.484       .  S
O566        C572   1.272       .  A
O566       Cd569   2.510       .  S
C567        O575   1.265       .  A
C567        C778   1.482       .  S
C568        O573   1.270   1_545  A
C568        O571   1.265   1_545  A
Cd569       O576   2.420       .  S
Cd569       O575   2.540       .  S
Cd569       O574   2.438       .  S
Cd569       O570   2.509       .  S
Cd569       O573   2.539       .  S
Cd569       O571   2.520       .  S
C572        O576   1.264       .  A
C572        C797   1.481       .  S
O577        C580   1.268       .  A
O577       Cd582   2.482       .  S
C578        O587   1.265       .  A
C578        O583   1.269       .  A
C578        C769   1.489       .  S
O579        C585   1.267       .  A
O579       Cd582   2.468       .  S
C580        O588   1.267       .  A
C580        C761   1.480       .  S
C581        O586   1.264       .  A
C581        O584   1.266       .  A
C581        C765   1.483       .  S
Cd582       O589   2.469       .  S
Cd582       O588   2.462       .  S
Cd582       O587   2.453       .  S
Cd582       O583   2.524       .  S
Cd582       O586   2.482       .  S
Cd582       O584   2.517       .  S
C585        O589   1.261       .  A
C585        C773   1.475       .  S
C590        C592   1.530       .  S
C590        C594   1.550       .  S
C590        C593   1.529       .  S
C590        C757   1.528       .  S
C591        C595   1.545       .  S
C591        C597   1.554       .  S
C591        C596   1.537       .  S
C591        C754   1.535       .  S
C592        C600   1.374       .  A
C592        C595   1.389       .  A
C593        C604   1.369       .  A
C593        C596   1.389       .  A
C594        C608   1.387       .  A
C594        C597   1.422       .  A
C595        C598   1.390       .  A
C596        C602   1.387       .  A
C597        C605   1.383       .  A
C598        N599   1.358       .  A
C598        H611   1.082       .  S
N599        C600   1.355       .  A
N599        C749   1.440   1_556  S
C600        H601   1.080   1_556  S
C602        N603   1.358       .  A
C602        H612   1.082       .  S
N603        C604   1.350       .  A
N603        C774   1.433       .  S
C604        H610   1.073       .  S
C605        N606   1.357       .  A
C605        H607   1.083       .  S
N606        C608   1.359       .  A
N606        C745   1.449       .  S
C608        H609   1.081       .  S
C613        C615   1.529       .  S
C613        C617   1.533       .  S
C613        C616   1.534       .  S
C613        C758   1.537       .  S
C614        C618   1.555       .  S
C614        C620   1.554       .  S
C614        C619   1.534       .  S
C614        C794   1.523       .  S
C615        C623   1.363       .  A
C615        C618   1.392       .  A
C616        C627   1.374       .  A
C616        C619   1.387       .  A
C617        C631   1.377       .  A
C617        C620   1.417       .  A
C618        C621   1.400       .  A
C619        C625   1.382       .  A
C620        C628   1.386       .  A
C621        N622   1.364       .  A
C621        H634   1.079       .  S
N622        C623   1.349       .  A
N622        C770   1.442   1_554  S
C623        H624   1.075   1_554  S
C625        N626   1.359       .  A
C625        H635   1.082       .  S
N626        C627   1.357       .  A
N626        C742   1.439       .  S
C627        H633   1.081       .  S
C628        N629   1.356       .  A
C628        H630   1.083       .  S
N629        C631   1.356       .  A
N629        C782   1.443       .  S
C631        H632   1.082       .  S
O636        C639   1.268       .  A
O636       Cd641   2.465       .  S
C637        O646   1.266       .  A
C637        O642   1.263       .  A
C637        C750   1.478       .  S
O638        C644   1.263       .  A
O638       Cd641   2.438       .  S
C639        O647   1.266       .  A
C639        C777   1.484       .  S
C640        O645   1.266       .  A
C640        O643   1.268   1_655  A
C640       C1654   1.493       .  S
Cd641       O648   2.490       .  S
Cd641       O647   2.547       .  S
Cd641       O646   2.513       .  S
Cd641       O642   2.454       .  S
Cd641       O645   2.525   1_455  S
Cd641       O643   2.510       .  S
C644        O648   1.266       .  A
C644        C741   1.476       .  S
O649        C652   1.267       .  A
O649       Cd654   2.489       .  S
C650        O659   1.265       .  A
C650        O655   1.269       .  A
C650        C733   1.489       .  S
O651        C657   1.265       .  A
O651       Cd654   2.428       .  S
C652        O660   1.266       .  A
C652        C850   1.481       .  S
C653        O658   1.261       .  A
C653        O656   1.266       .  A
C653        C834   1.478       .  S
Cd654       O661   2.470       .  S
Cd654       O660   2.471       .  S
Cd654       O659   2.454       .  S
Cd654       O655   2.522       .  S
Cd654       O658   2.466       .  S
Cd654       O656   2.511       .  S
C657        O661   1.262       .  A
C657        C738   1.468       .  S
C662        C664   1.534       .  S
C662        C666   1.530       .  S
C662        C665   1.533       .  S
C662        C730   1.537       .  S
C663        C667   1.550       .  S
C663        C669   1.560       .  S
C663        C668   1.535       .  S
C663        C753   1.526       .  S
C664        C672   1.362       .  A
C664        C667   1.398       .  A
C665        C676   1.375       .  A
C665        C668   1.387       .  A
C666       C1544   1.374       .  A
C666        C669   1.403       .  A
C667        C670   1.395       .  A
C668        C674   1.381       .  A
C669       C1541   1.386       .  A
C670        N671   1.366       .  A
C670        H683   1.081       .  S
N671        C672   1.350       .  A
N671        C734   1.441       .  S
C672        H673   1.075       .  S
C674        N675   1.353       .  A
C674        H684   1.082       .  S
N675        C676   1.358       .  A
N675        C725   1.437       .  S
C676        H682   1.077       .  S
C677       C1533   1.387       .  A
C677        N678   1.360       .  A
C677        H679   1.083       .  S
N678        C680   1.357       .  A
N678        C766   1.447       .  S
C680       C1530   1.379       .  A
C680        H681   1.082       .  S
C685        C687   1.532       .  S
C685        C689   1.549       .  S
C685        C688   1.535       .  S
C685        C729   1.531       .  S
C686        C690   1.535       .  S
C686        C692   1.551       .  S
C686        C691   1.528       .  S
C686        C842   1.525       .  S
C687        C695   1.374       .  A
C687        C690   1.388       .  A
C688        C699   1.371       .  A
C688        C691   1.391       .  A
C689       C1567   1.382       .  A
C689        C692   1.418       .  A
C690        C693   1.384       .  A
C691        C697   1.381       .  A
C692       C1564   1.385       .  A
C693        N694   1.356       .  A
C693        H706   1.081       .  S
N694        C695   1.355       .  A
N694        C722   1.433       .  S
C695        H696   1.076       .  S
C697        N698   1.352       .  A
C697        H707   1.080       .  S
N698        C699   1.350       .  A
N698        C737   1.428       .  S
C699        H705   1.073       .  S
C700       C1556   1.381       .  A
C700        N701   1.362       .  A
C700        H702   1.082       .  S
N701        C703   1.359       .  A
N701        C854   1.444       .  S
C703       C1553   1.381       .  A
C703        H704   1.079       .  S
O708        C711   1.268       .  A
O708       Cd713   2.458       .  S
C709        O718   1.263       .  A
C709        O714   1.263       .  A
C709        C721   1.477       .  S
O710        C716   1.261       .  A
O710       Cd713   2.457       .  S
C711        O719   1.270       .  A
C711        C762   1.479       .  S
C712        O717   1.263       .  A
C712        O715   1.266       .  A
Cd713       O720   2.475       .  S
Cd713       O719   2.474       .  S
Cd713       O718   2.456       .  S
Cd713       O714   2.492       .  S
Cd713       O717   2.472   1_565  S
Cd713       O715   2.506   1_565  S
C716        O720   1.265       .  A
C716        C726   1.471       .  S
C721        C722   1.344       .  D
C721        H723   1.086       .  S
C722        H724   1.087       .  S
C725        C726   1.342       .  D
C725        H727   1.087       .  S
C726        H728   1.086       .  S
C729        C730   1.357       .  D
C729        H731   1.088       .  S
C730        H732   1.082       .  S
C733        C734   1.347       .  D
C733        H735   1.086       .  S
C734        H736   1.088       .  S
C737        C738   1.339       .  D
C737        H739   1.088       .  S
C738        H740   1.087       .  S
C741        C742   1.348       .  D
C741        H743   1.085       .  S
C742        H744   1.088       .  S
C745        C746   1.350       .  D
C745        H747   1.087       .  S
C749        C750   1.345       .  D
C749        H751   1.086       .  S
C750        H752   1.087       .  S
C753        C754   1.353       .  D
C753        H755   1.084       .  S
C754        H756   1.083       .  S
C757        C758   1.356   1_556  D
C757        H759   1.088   1_556  S
C758        H760   1.083       .  S
C761        C762   1.345       .  D
C761        H763   1.087       .  S
C762        H764   1.087       .  S
C765        C766   1.350       .  D
C765        H767   1.085       .  S
C766        H768   1.087       .  S
C769        C770   1.347       .  D
C769        H771   1.086   1_556  S
C770        H772   1.087       .  S
C773        C774   1.339       .  D
C773        H775   1.087       .  S
C774        H776   1.088       .  S
C777        C778   1.353       .  D
C777        H779   1.087       .  S
C778        H780   1.087       .  S
C781        C782   1.344       .  D
C782        H784   1.087       .  S
C785        C786   1.350       .  D
C785        H787   1.087       .  S
C786        H788   1.086       .  S
C789        C790   1.348       .  D
C789        H791   1.087       .  S
C790       C1504   1.482       .  S
C790       H1656   1.085       .  S
H792       C1654   1.085       .  S
C793        C794   1.346       .  D
C793        H795   1.078       .  S
C794        H796   1.087       .  S
C797        C798   1.349       .  D
C797        H799   1.086       .  S
C798        H800   1.087       .  S
C801        C802   1.339       .  D
C801        H803   1.086       .  S
C802        H804   1.087       .  S
C805        C806   1.350       .  D
C805        H807   1.087       .  S
C806        H808   1.087       .  S
C809        C810   1.347       .  D
C809        H811   1.088       .  S
C810        H812   1.087       .  S
C813        C814   1.347       .  D
C813        H815   1.086       .  S
C814        H816   1.087       .  S
C817       C1360   1.489       .  S
C817        C818   1.348       .  D
C817       H1683   1.086       .  S
C818        H820   1.087       .  S
H819       C1681   1.086       .  S
C821        C822   1.353       .  D
C821        H823   1.087       .  S
C822        H824   1.085       .  S
C825        C826   1.343       .  D
C825        H827   1.084       .  S
C826        H828   1.084       .  S
C829        C830   1.343       .  D
C829        H831   1.088       .  S
C830        H832   1.084       .  S
C833        C834   1.347       .  D
C833        H835   1.087       .  S
C834        H836   1.085       .  S
C837        C838   1.347       .  D
C837        H839   1.087       .  S
C838        H840   1.086       .  S
C841        C842   1.352       .  D
C841        H843   1.084       .  S
C842        H844   1.085       .  S
C845        C846   1.339       .  D
C845        H847   1.072       .  S
C846        H848   1.070       .  S
C849        C850   1.346       .  D
C849        H851   1.087       .  S
C850        H852   1.087       .  S
C853        C854   1.347       .  D
C853        H855   1.086       .  S
C854        H856   1.087       .  S
C857        C858   1.344       .  D
C857        H859   1.086       .  S
C858        H860   1.087       .  S
C861        C862   1.346       .  D
C861        H863   1.088       .  S
C862        H864   1.084       .  S
O865        C868   1.269       .  A
O865       Cd870   2.500       .  S
C866        O875   1.265       .  A
C866        O871   1.269       .  A
C866       C1289   1.488       .  S
O867        C873   1.264       .  A
O867       Cd870   2.465       .  S
C868        O876   1.264       .  A
C868       C1281   1.479       .  S
C869        O874   1.266       .  A
C869        O872   1.260       .  A
C869       C1285   1.482       .  S
Cd870       O877   2.462       .  S
Cd870       O876   2.452       .  S
Cd870       O875   2.446       .  S
Cd870       O871   2.522       .  S
Cd870       O874   2.533       .  S
Cd870       O872   2.471       .  S
C873        O877   1.261       .  A
C873       C1294   1.470       .  S
C878        C880   1.537       .  S
C878        C882   1.543       .  S
C878        C881   1.547       .  S
C878       C1278   1.535       .  S
C879        C883   1.528       .  S
C879        C885   1.552       .  S
C879        C884   1.538       .  S
C879       C1273   1.520       .  S
C880        C888   1.376       .  A
C880        C883   1.380       .  A
C881        C892   1.382       .  A
C881        C884   1.397       .  A
C882       C1328   1.382       .  A
C882        C885   1.424       .  A
C883        C886   1.389       .  A
C884        C890   1.378       .  A
C885       C1325   1.392       .  A
C886        N887   1.357       .  A
C886        H899   1.081       .  S
N887        C888   1.354       .  A
N887       C1269   1.438       .  S
C888        H889   1.077       .  S
C890        N891   1.357       .  A
C890        H900   1.081       .  S
N891        C892   1.354       .  A
N891       C1293   1.439       .  S
C892        H898   1.075       .  S
C893       C1317   1.380       .  A
C893        N894   1.360       .  A
C893        H895   1.083       .  S
N894        C896   1.362       .  A
N894       C1265   1.449   1_565  S
C896       C1314   1.387       .  A
C896        H897   1.080       .  S
C901        C903   1.535       .  S
C901        C905   1.546       .  S
C901        C904   1.544       .  S
C901       C1277   1.539       .  S
C902        C906   1.537       .  S
C902        C908   1.555       .  S
C902        C907   1.541       .  S
C902       C1257   1.531       .  S
C903        C911   1.374       .  A
C903        C906   1.387       .  A
C904        C915   1.382       .  A
C904        C907   1.394       .  A
C905       C1351   1.383       .  A
C905        C908   1.427       .  A
C906        C909   1.395       .  A
C907        C913   1.381       .  A
C908       C1348   1.391       .  A
C909        N910   1.359       .  A
C909        H922   1.080       .  S
N910        C911   1.349       .  A
N910       C1290   1.438       .  S
C911        H912   1.076       .  S
C913        N914   1.357       .  A
C913        H923   1.080       .  S
N914        C915   1.352       .  A
N914       C1261   1.440       .  S
C915        H921   1.075       .  S
C916       C1340   1.390       .  A
C916        N917   1.364   1_565  A
C916        H918   1.082       .  S
N917        C919   1.359   1_545  A
N917       C1253   1.454       .  S
C919       C1337   1.381       .  A
C919        H920   1.081   1_565  S
O924        C927   1.270       .  A
O924       Cd929   2.502       .  S
C925        O934   1.268       .  A
C925        O930   1.261       .  A
C925       C1270   1.486       .  S
O926        C932   1.262       .  A
O926       Cd929   2.440       .  S
C927        O935   1.267       .  A
C927       C1246   1.486       .  S
C928        O933   1.264       .  A
C928        O931   1.267       .  A
Cd929       O936   2.479       .  S
Cd929       O935   2.467       .  S
Cd929       O934   2.536       .  S
Cd929       O930   2.435       .  S
Cd929       O933   2.508       .  S
Cd929       O931   2.524       .  S
C932        O936   1.263       .  A
C932       C1262   1.473       .  S
O937        C940   1.269       .  A
O937       Cd942   2.513       .  S
C938        O947   1.262       .  A
C938        O943   1.266       .  A
C938       C1237   1.477       .  S
O939        C945   1.263       .  A
O939       Cd942   2.457       .  S
C940        O948   1.267       .  A
C940       C1245   1.487       .  S
C941        O946   1.265       .  A
C941        O944   1.263       .  A
C941       C1254   1.492       .  S
Cd942       O949   2.530       .  S
Cd942       O948   2.482       .  S
Cd942       O947   2.466       .  S
Cd942       O943   2.494       .  S
Cd942       O946   2.524       .  S
Cd942       O944   2.528       .  S
C945        O949   1.262       .  A
C945       C1242   1.477       .  S
C950        C952   1.541       .  S
C950        C954   1.547       .  S
C950        C953   1.536       .  S
C950       C1233   1.539       .  S
C951        C955   1.537       .  S
C951        C957   1.545       .  S
C951        C956   1.534       .  S
C951       C1225   1.528       .  S
C952        C960   1.375       .  A
C952        C955   1.395       .  A
C953        C964   1.381       .  A
C953        C956   1.386       .  A
C954        C968   1.381       .  A
C954        C957   1.423       .  A
C955        C958   1.386       .  A
C956        C962   1.377       .  A
C957        C965   1.382       .  A
C958        N959   1.357       .  A
C958        H971   1.081       .  S
N959        C960   1.352       .  A
N959       C1238   1.433       .  S
C960        H961   1.080       .  S
C962        N963   1.350       .  A
C962        H972   1.082       .  S
N963        C964   1.360       .  A
N963       C1230   1.435       .  S
C964        H970   1.082       .  S
C965        N966   1.355       .  A
C965        H967   1.083       .  S
N966        C968   1.356       .  A
N966       C1221   1.441       .  S
C968        H969   1.082       .  S
C973        C975   1.539       .  S
C973        C977   1.536       .  S
C973        C976   1.544       .  S
C973       C1234   1.535       .  S
C974        C978   1.533       .  S
C974        C980   1.542       .  S
C974        C979   1.550       .  S
C974       C1258   1.535       .  S
C975        C983   1.373       .  A
C975        C978   1.391       .  A
C976        C987   1.388       .  A
C976        C979   1.411       .  A
C977        C991   1.380       .  A
C977        C980   1.400       .  A
C978        C981   1.384       .  A
C979        C985   1.378       .  A
C980        C988   1.380       .  A
C981        N982   1.358       .  A
C981        H994   1.082       .  S
N982        C983   1.355       .  A
N982       C1217   1.436       .  S
C983        H984   1.082       .  S
C985        N986   1.353       .  A
C985        H995   1.079       .  S
N986        C987   1.356       .  A
N986       C1241   1.438       .  S
C987        H993   1.082       .  S
C988        N989   1.358       .  A
C988        H990   1.082       .  S
N989        C991   1.360       .  A
N989       C1250   1.441       .  S
C991        H992   1.082       .  S
O996        C999   1.269       .  A
O996      Cd1001   2.494       .  S
C997       O1006   1.271       .  A
C997       O1002   1.264       .  A
C997       C1218   1.479       .  S
O998       C1004   1.262       .  A
O998      Cd1001   2.458       .  S
C999       O1007   1.263       .  A
C999       C1210   1.476       .  S
C1000      O1005   1.270       .  A
C1000      O1003   1.262       .  A
C1000      C1645   1.473       .  S
Cd1001     O1008   2.446       .  S
Cd1001     O1007   2.442       .  S
Cd1001     O1006   2.507       .  S
Cd1001     O1002   2.392       .  S
Cd1001     O1005   2.509       .  S
Cd1001     O1003   2.423       .  S
C1004      O1008   1.266       .  A
C1004      C1229   1.470       .  S
O1009      C1012   1.268       .  A
O1009     Cd1014   2.495       .  S
C1010      O1019   1.264       .  A
C1010      O1015   1.270       .  A
C1010      C1201   1.488       .  S
O1011      C1017   1.265       .  A
O1011     Cd1014   2.479       .  S
C1012      O1020   1.266       .  A
C1012      C1193   1.485       .  S
C1013      O1018   1.264       .  A
C1013      O1016   1.266       .  A
C1013      C1197   1.484       .  S
Cd1014     O1021   2.441       .  S
Cd1014     O1020   2.477       .  S
Cd1014     O1019   2.442       .  S
Cd1014     O1015   2.525       .  S
Cd1014     O1018   2.487       .  S
Cd1014     O1016   2.513       .  S
C1017      O1021   1.263       .  A
C1017      C1205   1.471       .  S
C1022      C1024   1.526       .  S
C1022      C1026   1.545       .  S
C1022      C1025   1.531       .  S
C1022      C1189   1.524       .  S
C1023      C1027   1.526       .  S
C1023      C1029   1.551       .  S
C1023      C1028   1.540       .  S
C1023      C1186   1.523       .  S
C1024      C1032   1.368   1_556  A
C1024      C1027   1.385       .  A
C1025      C1036   1.373       .  A
C1025      C1028   1.391       .  A
C1026      C1040   1.382       .  A
C1026      C1029   1.429       .  A
C1027      C1030   1.386       .  A
C1028      C1034   1.381       .  A
C1029      C1037   1.384       .  A
C1030      N1031   1.352       .  A
C1030      H1043   1.082       .  S
N1031      C1032   1.348   1_556  A
N1031      C1181   1.427   1_556  S
C1032      H1033   1.073       .  S
C1034      N1035   1.356       .  A
C1034      H1044   1.081       .  S
N1035      C1036   1.358       .  A
N1035      C1206   1.433       .  S
C1036      H1042   1.082       .  S
C1037      N1038   1.352       .  A
C1037      H1039   1.082       .  S
N1038      C1040   1.354       .  A
N1038      C1177   1.441       .  S
C1040      H1041   1.082       .  S
C1045      C1047   1.531       .  S
C1045      C1049   1.539       .  S
C1045      C1048   1.533       .  S
C1045      C1190   1.535       .  S
C1046      C1050   1.545       .  S
C1046      C1052   1.548       .  S
C1046      C1051   1.546       .  S
C1046      C1226   1.530       .  S
C1047      C1055   1.370       .  A
C1047      C1050   1.387       .  A
C1048      C1059   1.376       .  A
C1048      C1051   1.399       .  A
C1049      C1063   1.382       .  A
C1049      C1052   1.413       .  A
C1050      C1053   1.393       .  A
C1051      C1057   1.392       .  A
C1052      C1060   1.377       .  A
C1053      N1054   1.364       .  A
C1053      H1066   1.082       .  S
N1054      C1055   1.352       .  A
N1054      C1202   1.440   1_554  S
C1055      H1056   1.082   1_554  S
C1057      N1058   1.358       .  A
C1057      H1067   1.080       .  S
N1058      C1059   1.350       .  A
N1058      C1174   1.444       .  S
C1059      H1065   1.082       .  S
C1060      N1061   1.355       .  A
C1060      H1062   1.082       .  S
N1061      C1063   1.359       .  A
N1061      C1214   1.440       .  S
C1063      H1064   1.082       .  S
O1068      C1071   1.268       .  A
O1068     Cd1073   2.476       .  S
C1069      O1078   1.268       .  A
C1069      O1074   1.265       .  A
C1069      C1182   1.473       .  S
O1070      C1076   1.265       .  A
O1070     Cd1073   2.500       .  S
C1071      O1079   1.266       .  A
C1071      C1209   1.479       .  S
C1072      O1077   1.264       .  A
C1072      O1075   1.266       .  A
Cd1073     O1080   2.499       .  S
Cd1073     O1079   2.465       .  S
Cd1073     O1078   2.487       .  S
Cd1073     O1074   2.398       .  S
Cd1073     O1077   2.510       .  S
Cd1073     O1075   2.492       .  S
C1076      O1080   1.262       .  A
C1076      C1173   1.486       .  S
O1081      C1084   1.269       .  A
O1081     Cd1086   2.480       .  S
C1082      O1091   1.265       .  A
C1082      O1087   1.269       .  A
C1082      C1165   1.481       .  S
O1083      C1089   1.266       .  A
O1083     Cd1086   2.497       .  S
C1084      O1092   1.266       .  A
C1084      C1282   1.480       .  S
C1085      O1090   1.266       .  A
C1085      O1088   1.264       .  A
C1085      C1266   1.491       .  S
Cd1086     O1093   2.496       .  S
Cd1086     O1092   2.465       .  S
Cd1086     O1091   2.416       .  S
Cd1086     O1087   2.504       .  S
Cd1086     O1090   2.527       .  S
Cd1086     O1088   2.505       .  S
C1089      O1093   1.263       .  A
C1089      C1170   1.486       .  S
C1094      C1096   1.529       .  S
C1094      C1098   1.555       .  S
C1094      C1097   1.528       .  S
C1094      C1162   1.523       .  S
C1095      C1099   1.530       .  S
C1095      C1101   1.557       .  S
C1095      C1100   1.542       .  S
C1095      C1185   1.522       .  S
C1096      C1104   1.369       .  A
C1096      C1099   1.379       .  A
C1097      C1108   1.372       .  A
C1097      C1100   1.388       .  A
C1098      C1101   1.426       .  A
C1099      C1102   1.390       .  A
C1100      C1106   1.385       .  A
C1102      N1103   1.357       .  A
C1102      H1115   1.082       .  S
N1103      C1104   1.350       .  A
N1103      C1166   1.434       .  S
C1104      H1105   1.071       .  S
C1106      N1107   1.356       .  A
C1106      H1116   1.081       .  S
N1107      C1108   1.357       .  A
N1107      C1157   1.437       .  S
C1108      H1114   1.080       .  S
C1109      N1110   1.354       .  A
C1109      H1111   1.082       .  S
N1110      C1112   1.357       .  A
N1110      C1198   1.446   1_455  S
C1112      H1113   1.082       .  S
C1117      C1119   1.536       .  S
C1117      C1121   1.538       .  S
C1117      C1120   1.541       .  S
C1117      C1161   1.538       .  S
C1118      C1122   1.533       .  S
C1118      C1124   1.560       .  S
C1118      C1123   1.540       .  S
C1118      C1274   1.522       .  S
C1119      C1127   1.375       .  A
C1119      C1122   1.383       .  A
C1120      C1131   1.377       .  A
C1120      C1123   1.396       .  A
C1121      C1124   1.418       .  A
C1122      C1125   1.387       .  A
C1123      C1129   1.389       .  A
C1125      N1126   1.358       .  A
C1125      H1138   1.082       .  S
N1126      C1127   1.356       .  A
N1126      C1154   1.437       .  S
C1127      H1128   1.080       .  S
C1129      N1130   1.360       .  A
C1129      H1139   1.081       .  S
N1130      C1131   1.354       .  A
N1130      C1169   1.446       .  S
C1131      H1137   1.081       .  S
C1132      N1133   1.357       .  A
C1132      H1134   1.083       .  S
N1133      C1135   1.360       .  A
N1133      C1286   1.449   1_455  S
C1135      H1136   1.081       .  S
O1140      C1143   1.269       .  A
O1140     Cd1145   2.470       .  S
C1141      O1150   1.260       .  A
C1141      O1146   1.266       .  A
C1141      C1153   1.483       .  S
O1142      C1148   1.261       .  A
O1142     Cd1145   2.450       .  S
C1143      O1151   1.271       .  A
C1143      C1194   1.485       .  S
C1144      O1149   1.263       .  A
C1144      O1147   1.267       .  A
C1144      C1610   1.484       .  S
Cd1145     O1152   2.483       .  S
Cd1145     O1151   2.493       .  S
Cd1145     O1150   2.438       .  S
Cd1145     O1146   2.527       .  S
Cd1145     O1149   2.481       .  S
Cd1145     O1147   2.520       .  S
C1148      O1152   1.265       .  A
C1148      C1158   1.471       .  S
C1153      C1154   1.349       .  D
C1153      H1155   1.086       .  S
C1154      H1156   1.087       .  S
C1157      C1158   1.342       .  D
C1157      H1159   1.087       .  S
C1158      H1160   1.087       .  S
C1161      C1162   1.353       .  D
C1161      H1163   1.084       .  S
C1162      H1164   1.088       .  S
C1165      C1166   1.344       .  D
C1165      H1167   1.086       .  S
C1166      H1168   1.088       .  S
C1169      C1170   1.349       .  D
C1169      H1171   1.087       .  S
C1170      H1172   1.085       .  S
C1173      C1174   1.347       .  D
C1173      H1175   1.086       .  S
C1174      H1176   1.088       .  S
C1177      C1178   1.344       .  D
C1177      H1179   1.087       .  S
C1178      C1576   1.475       .  S
C1178      H1612   1.086       .  S
H1180      C1610   1.086       .  S
C1181      C1182   1.341       .  D
C1181      H1183   1.088       .  S
C1182      H1184   1.086       .  S
C1185      C1186   1.336       .  D
C1185      H1187   1.085       .  S
C1186      H1188   1.086       .  S
C1189      C1190   1.357   1_556  D
C1189      H1191   1.088       .  S
C1190      H1192   1.083       .  S
C1193      C1194   1.348       .  D
C1193      H1195   1.086       .  S
C1194      H1196   1.087       .  S
C1197      C1198   1.347       .  D
C1197      H1199   1.086       .  S
C1198      H1200   1.087       .  S
C1201      C1202   1.348       .  D
C1201      H1203   1.086   1_556  S
C1202      H1204   1.087       .  S
C1205      C1206   1.341       .  D
C1205      H1207   1.086       .  S
C1206      H1208   1.087       .  S
C1209      C1210   1.344       .  D
C1209      H1211   1.087       .  S
C1210      H1212   1.087       .  S
C1213      C1432   1.478       .  S
C1213      C1214   1.344       .  D
C1213      H1647   1.086       .  S
C1214      H1216   1.087       .  S
H1215      C1645   1.084       .  S
C1217      C1218   1.348       .  D
C1217      H1219   1.088       .  S
C1218      H1220   1.085       .  S
C1221      C1222   1.346       .  D
C1221      H1223   1.087       .  S
C1225      C1226   1.342       .  D
C1225      H1227   1.083       .  S
C1226      H1228   1.085       .  S
C1229      C1230   1.339       .  D
C1229      H1231   1.086       .  S
C1230      H1232   1.088       .  S
C1233      C1234   1.354       .  D
C1233      H1235   1.085       .  S
C1234      H1236   1.082       .  S
C1237      C1238   1.342       .  D
C1237      H1239   1.087       .  S
C1238      H1240   1.086       .  S
C1241      C1242   1.347       .  D
C1241      H1243   1.087       .  S
C1242      H1244   1.087       .  S
C1245      C1246   1.348       .  D
C1245      H1247   1.087       .  S
C1246      H1248   1.086       .  S
C1249      C1250   1.345       .  D
C1250      H1252   1.087       .  S
C1253      C1254   1.355       .  D
C1253      H1255   1.086       .  S
C1254      H1256   1.084       .  S
C1257      C1258   1.349       .  D
C1257      H1259   1.084       .  S
C1258      H1260   1.085       .  S
C1261      C1262   1.344       .  D
C1261      H1263   1.088       .  S
C1262      H1264   1.084       .  S
C1265      C1266   1.351       .  D
C1265      H1267   1.087       .  S
C1266      H1268   1.085       .  S
C1269      C1270   1.350       .  D
C1269      H1271   1.087       .  S
C1270      H1272   1.086       .  S
C1273      C1274   1.351       .  D
C1273      H1275   1.085       .  S
C1274      H1276   1.086       .  S
C1277      C1278   1.347       .  D
C1277      H1279   1.073       .  S
C1278      H1280   1.073       .  S
C1281      C1282   1.345       .  D
C1281      H1283   1.087       .  S
C1282      H1284   1.087       .  S
C1285      C1286   1.348       .  D
C1285      H1287   1.084       .  S
C1286      H1288   1.087       .  S
C1289      C1290   1.346       .  D
C1289      H1291   1.086       .  S
C1290      H1292   1.087       .  S
C1293      C1294   1.343       .  D
C1293      H1295   1.088       .  S
C1294      H1296   1.084       .  S
O1297      C1300   1.272       .  A
O1297     Cd1302   2.526       .  S
C1298      O1307   1.264       .  A
C1298      O1303   1.270       .  A
C1298      C1721   1.495       .  S
O1299      C1305   1.268       .  A
O1299     Cd1302   2.494       .  S
C1300      O1308   1.264       .  A
C1300      C1713   1.488       .  S
C1301      O1306   1.265       .  A
C1301      O1304   1.266       .  A
C1301      C1717   1.488       .  S
Cd1302     O1309   2.445       .  S
Cd1302     O1308   2.459       .  S
Cd1302     O1307   2.473       .  S
Cd1302     O1303   2.544       .  S
Cd1302     O1306   2.507       .  S
Cd1302     O1304   2.512       .  S
C1305      O1309   1.260       .  A
C1305      C1726   1.474       .  S
C1310      C1312   1.539       .  S
C1310      C1314   1.542       .  S
C1310      C1313   1.524       .  S
C1310      C1710   1.524       .  S
C1311      C1315   1.548       .  S
C1311      C1317   1.557       .  S
C1311      C1316   1.543       .  S
C1311      C1705   1.528       .  S
C1312      C1320   1.375       .  A
C1312      C1315   1.395       .  A
C1313      C1324   1.372       .  A
C1313      C1316   1.392       .  A
C1314      C1317   1.411       .  A
C1315      C1318   1.397       .  A
C1316      C1322   1.391       .  A
C1318      N1319   1.362       .  A
C1318      H1331   1.081       .  S
N1319      C1320   1.351       .  A
N1319      C1701   1.441       .  S
C1320      H1321   1.082       .  S
C1322      N1323   1.356       .  A
C1322      H1332   1.082       .  S
N1323      C1324   1.346       .  A
N1323      C1725   1.437       .  S
C1324      H1330   1.073       .  S
C1325      N1326   1.357       .  A
C1325      H1327   1.083       .  S
N1326      C1328   1.354       .  A
N1326      C1697   1.451       .  S
C1328      H1329   1.082       .  S
C1333      C1335   1.538       .  S
C1333      C1337   1.537       .  S
C1333      C1336   1.528       .  S
C1333      C1709   1.534       .  S
C1334      C1338   1.547       .  S
C1334      C1340   1.564       .  S
C1334      C1339   1.545       .  S
C1334      C1689   1.526       .  S
C1335      C1343   1.370       .  A
C1335      C1338   1.388       .  A
C1336      C1347   1.371       .  A
C1336      C1339   1.386       .  A
C1337      C1340   1.415       .  A
C1338      C1341   1.398       .  A
C1339      C1345   1.388       .  A
C1341      N1342   1.363       .  A
C1341      H1354   1.082       .  S
N1342      C1343   1.352       .  A
N1342      C1722   1.444       .  S
C1343      H1344   1.069       .  S
C1345      N1346   1.364       .  A
C1345      H1355   1.081       .  S
N1346      C1347   1.354       .  A
N1346      C1693   1.442       .  S
C1347      H1353   1.082       .  S
C1348      N1349   1.359       .  A
C1348      H1350   1.083       .  S
N1349      C1351   1.354       .  A
N1349      C1685   1.451       .  S
C1351      H1352   1.082       .  S
O1356      C1359   1.271       .  A
O1356     Cd1361   2.509       .  S
C1357      O1366   1.266       .  A
C1357      O1362   1.264       .  A
C1357      C1702   1.489       .  S
O1358      C1364   1.264       .  A
O1358     Cd1361   2.465       .  S
C1359      O1367   1.266       .  A
C1359      C1678   1.486       .  S
C1360      O1365   1.266       .  A
C1360      O1363   1.266       .  A
Cd1361     O1368   2.493       .  S
Cd1361     O1367   2.468       .  S
Cd1361     O1366   2.519       .  S
Cd1361     O1362   2.476       .  S
Cd1361     O1365   2.511       .  S
Cd1361     O1363   2.509       .  S
C1364      O1368   1.263       .  A
C1364      C1694   1.480       .  S
O1369      C1372   1.270       .  A
O1369     Cd1374   2.510       .  S
C1370      O1379   1.264       .  A
C1370      O1375   1.267       .  A
C1370      C1669   1.480       .  S
O1371      C1377   1.264       .  A
O1371     Cd1374   2.478       .  S
C1372      O1380   1.265       .  A
C1372      C1677   1.485       .  S
C1373      O1378   1.267       .  A
C1373      O1376   1.268       .  A
C1373      C1686   1.488       .  S
Cd1374     O1381   2.491       .  S
Cd1374     O1380   2.468       .  S
Cd1374     O1379   2.479       .  S
Cd1374     O1375   2.485       .  S
Cd1374     O1378   2.490       .  S
Cd1374     O1376   2.522       .  S
C1377      O1381   1.260       .  A
C1377      C1674   1.480       .  S
C1382      C1384   1.531       .  S
C1382      C1386   1.557       .  S
C1382      C1385   1.519       .  S
C1382      C1665   1.522       .  S
C1383      C1387   1.538       .  S
C1383      C1389   1.558       .  S
C1383      C1388   1.535       .  S
C1383      C1657   1.530       .  S
C1384      C1392   1.376       .  A
C1384      C1387   1.382       .  A
C1385      C1396   1.367       .  A
C1385      C1388   1.382       .  A
C1386      C1400   1.389       .  A
C1386      C1389   1.431       .  A
C1387      C1390   1.389       .  A
C1388      C1394   1.381       .  A
C1389      C1397   1.387       .  A
C1390      N1391   1.359       .  A
C1390      H1403   1.082       .  S
N1391      C1392   1.354       .  A
N1391      C1670   1.438       .  S
C1392      H1393   1.080       .  S
C1394      N1395   1.354       .  A
C1394      H1404   1.082       .  S
N1395      C1396   1.356       .  A
N1395      C1662   1.428       .  S
C1396      H1402   1.083       .  S
C1397      N1398   1.358       .  A
C1397      H1399   1.083       .  S
N1398      C1400   1.358       .  A
N1398      C1653   1.453       .  S
C1400      H1401   1.081       .  S
C1405      C1407   1.549       .  S
C1405      C1409   1.534       .  S
C1405      C1408   1.538       .  S
C1405      C1666   1.528       .  S
C1406      C1410   1.537       .  S
C1406      C1412   1.552       .  S
C1406      C1411   1.540       .  S
C1406      C1690   1.528       .  S
C1407      C1415   1.391       .  A
C1407      C1410   1.391       .  A
C1408      C1419   1.373       .  A
C1408      C1411   1.399       .  A
C1409      C1423   1.380       .  A
C1409      C1412   1.400       .  A
C1410      C1413   1.374       .  A
C1411      C1417   1.388       .  A
C1412      C1420   1.386       .  A
C1413      N1414   1.358       .  A
C1413      H1426   1.083       .  S
N1414      C1415   1.365       .  A
N1414      C1649   1.439       .  S
C1415      H1416   1.082       .  S
C1417      N1418   1.360       .  A
C1417      H1427   1.082       .  S
N1418      C1419   1.352       .  A
N1418      C1673   1.440       .  S
C1419      H1425   1.082       .  S
C1420      N1421   1.362       .  A
C1420      H1422   1.082       .  S
N1421      C1423   1.357       .  A
N1421      C1682   1.444       .  S
C1423      H1424   1.082       .  S
O1428      C1431   1.267       .  A
O1428     Cd1433   2.499       .  S
C1429      O1438   1.264       .  A
C1429      O1434   1.267       .  A
C1429      C1650   1.481       .  S
O1430      C1436   1.264       .  A
O1430     Cd1433   2.451       .  S
C1431      O1439   1.263       .  A
C1431      C1642   1.484       .  S
C1432      O1437   1.266       .  A
C1432      O1435   1.264   1_545  A
Cd1433     O1440   2.428       .  S
Cd1433     O1439   2.482       .  S
Cd1433     O1438   2.545       .  S
Cd1433     O1434   2.459       .  S
Cd1433     O1437   2.473   1_565  S
Cd1433     O1435   2.483       .  S
C1436      O1440   1.264       .  A
C1436      C1661   1.463       .  S
O1441      C1444   1.267       .  A
O1441     Cd1446   2.484       .  S
C1442      O1451   1.265       .  A
C1442      O1447   1.268       .  A
C1442      C1633   1.480       .  S
O1443      C1449   1.267       .  A
O1443     Cd1446   2.490       .  S
C1444      O1452   1.267       .  A
C1444      C1625   1.484       .  S
C1445      O1450   1.265       .  A
C1445      O1448   1.265       .  A
C1445      C1629   1.484       .  S
Cd1446     O1453   2.465       .  S
Cd1446     O1452   2.482       .  S
Cd1446     O1451   2.418       .  S
Cd1446     O1447   2.514       .  S
Cd1446     O1450   2.489       .  S
Cd1446     O1448   2.516       .  S
C1449      O1453   1.260       .  A
C1449      C1637   1.476       .  S
C1454      C1456   1.532       .  S
C1454      C1458   1.546       .  S
C1454      C1457   1.530       .  S
C1454      C1621   1.526       .  S
C1455      C1459   1.537       .  S
C1455      C1461   1.548       .  S
C1455      C1460   1.543       .  S
C1455      C1618   1.524       .  S
C1456      C1464   1.372       .  A
C1456      C1459   1.388       .  A
C1457      C1468   1.372       .  A
C1457      C1460   1.402       .  A
C1458      C1472   1.384       .  A
C1458      C1461   1.409       .  A
C1459      C1462   1.389       .  A
C1460      C1466   1.390       .  A
C1461      C1469   1.378       .  A
C1462      N1463   1.357       .  A
C1462      H1475   1.082       .  S
N1463      C1464   1.350       .  A
N1463      C1613   1.434   1_556  S
C1464      H1465   1.074   1_556  S
C1466      N1467   1.355       .  A
C1466      H1476   1.083       .  S
N1467      C1468   1.347       .  A
N1467      C1638   1.433       .  S
C1468      H1474   1.079       .  S
C1469      N1470   1.359       .  A
C1469      H1471   1.082       .  S
N1470      C1472   1.362       .  A
N1470      C1609   1.441       .  S
C1472      H1473   1.081       .  S
C1477      C1479   1.529       .  S
C1477      C1481   1.538       .  S
C1477      C1480   1.530       .  S
C1477      C1622   1.538       .  S
C1478      C1482   1.534       .  S
C1478      C1484   1.553       .  S
C1478      C1483   1.540       .  S
C1478      C1658   1.519       .  S
C1479      C1487   1.365       .  A
C1479      C1482   1.387       .  A
C1480      C1491   1.374       .  A
C1480      C1483   1.385       .  A
C1481      C1495   1.375       .  A
C1481      C1484   1.426       .  A
C1482      C1485   1.388       .  A
C1483      C1489   1.383       .  A
C1484      C1492   1.385       .  A
C1485      N1486   1.361       .  A
C1485      H1498   1.082       .  S
N1486      C1487   1.351       .  A
N1486      C1634   1.433   1_554  S
C1487      H1488   1.079   1_554  S
C1489      N1490   1.357       .  A
C1489      H1499   1.081       .  S
N1490      C1491   1.354       .  A
N1490      C1606   1.439       .  S
C1491      H1497   1.079       .  S
C1492      N1493   1.356       .  A
C1492      H1494   1.083       .  S
N1493      C1495   1.356       .  A
N1493      C1646   1.445       .  S
C1495      H1496   1.081       .  S
O1500      C1503   1.270       .  A
O1500     Cd1505   2.495       .  S
C1501      O1510   1.263       .  A
C1501      O1506   1.270       .  A
C1501      C1614   1.483       .  S
O1502      C1508   1.264       .  A
O1502     Cd1505   2.458       .  S
C1503      O1511   1.266       .  A
C1503      C1641   1.484       .  S
C1504      O1509   1.266       .  A
C1504      O1507   1.263       .  A
Cd1505     O1512   2.470       .  S
Cd1505     O1511   2.473       .  S
Cd1505     O1510   2.435       .  S
Cd1505     O1506   2.515       .  S
Cd1505     O1509   2.519       .  S
Cd1505     O1507   2.474       .  S
C1508      O1512   1.262       .  A
C1508      C1605   1.472       .  S
O1513      C1516   1.271       .  A
O1513     Cd1518   2.511       .  S
C1514      O1523   1.262       .  A
C1514      O1519   1.272       .  A
C1514      C1597   1.488       .  S
O1515      C1521   1.266       .  A
O1515     Cd1518   2.488       .  S
C1516      O1524   1.265       .  A
C1516      C1714   1.487       .  S
C1517      O1522   1.265       .  A
C1517      O1520   1.270       .  A
C1517      C1698   1.486       .  S
Cd1518     O1525   2.470       .  S
Cd1518     O1524   2.467       .  S
Cd1518     O1523   2.413       .  S
Cd1518     O1519   2.544       .  S
Cd1518     O1522   2.464       .  S
Cd1518     O1520   2.540       .  S
C1521      O1525   1.259       .  A
C1521      C1602   1.476       .  S
C1526      C1528   1.536       .  S
C1526      C1530   1.537       .  S
C1526      C1529   1.537       .  S
C1526      C1594   1.539       .  S
C1527      C1531   1.543       .  S
C1527      C1533   1.556       .  S
C1527      C1532   1.529       .  S
C1527      C1617   1.522       .  S
C1528      C1536   1.366       .  A
C1528      C1531   1.394       .  A
C1529      C1540   1.376       .  A
C1529      C1532   1.388       .  A
C1530      C1533   1.414       .  A
C1531      C1534   1.393       .  A
C1532      C1538   1.377       .  A
C1534      N1535   1.360       .  A
C1534      H1547   1.080       .  S
N1535      C1536   1.353       .  A
N1535      C1598   1.439       .  S
C1536      H1537   1.076       .  S
C1538      N1539   1.350       .  A
C1538      H1548   1.082       .  S
N1539      C1540   1.359       .  A
N1539      C1589   1.432       .  S
C1540      H1546   1.076       .  S
C1541      N1542   1.365       .  A
C1541      H1543   1.082       .  S
N1542      C1544   1.361       .  A
N1542      C1630   1.449   1_455  S
C1544      H1545   1.082   1_455  S
C1549      C1551   1.531       .  S
C1549      C1553   1.548       .  S
C1549      C1552   1.536       .  S
C1549      C1593   1.538       .  S
C1550      C1554   1.542       .  S
C1550      C1556   1.549       .  S
C1550      C1555   1.536       .  S
C1550      C1706   1.528       .  S
C1551      C1559   1.370       .  A
C1551      C1554   1.392       .  A
C1552      C1563   1.372       .  A
C1552      C1555   1.402       .  A
C1553      C1556   1.408       .  A
C1554      C1557   1.388       .  A
C1555      C1561   1.390       .  A
C1557      N1558   1.359       .  A
C1557      H1570   1.082       .  S
N1558      C1559   1.352       .  A
N1558      C1586   1.435       .  S
C1559      H1560   1.077       .  S
C1561      N1562   1.353       .  A
C1561      H1571   1.082       .  S
N1562      C1563   1.346       .  A
N1562      C1601   1.433       .  S
C1563      H1569   1.073       .  S
C1564      N1565   1.361       .  A
C1564      H1566   1.082       .  S
N1565      C1567   1.357       .  A
N1565      C1718   1.446   1_455  S
C1567      H1568   1.081       .  S
O1572      C1575   1.269       .  A
O1572     Cd1577   2.486       .  S
C1573      O1582   1.264       .  A
C1573      O1578   1.269       .  A
C1573      C1585   1.482       .  S
O1574      C1580   1.263       .  A
O1574     Cd1577   2.465       .  S
C1575      O1583   1.267       .  A
C1575      C1626   1.484       .  S
C1576      O1581   1.263       .  A
C1576      O1579   1.266       .  A
Cd1577     O1584   2.443       .  S
Cd1577     O1583   2.482       .  S
Cd1577     O1582   2.443       .  S
Cd1577     O1578   2.504       .  S
Cd1577     O1581   2.461   1_565  S
Cd1577     O1579   2.496   1_565  S
C1580      O1584   1.264       .  A
C1580      C1590   1.467       .  S
C1585      C1586   1.346       .  D
C1585      H1587   1.086       .  S
C1586      H1588   1.087       .  S
C1589      C1590   1.339       .  D
C1589      H1591   1.087       .  S
C1590      H1592   1.086       .  S
C1593      C1594   1.356       .  D
C1593      H1595   1.088       .  S
C1594      H1596   1.079       .  S
C1597      C1598   1.351       .  D
C1597      H1599   1.086       .  S
C1598      H1600   1.087       .  S
C1601      C1602   1.339       .  D
C1601      H1603   1.087       .  S
C1602      H1604   1.087       .  S
C1605      C1606   1.346       .  D
C1605      H1607   1.085       .  S
C1606      H1608   1.088       .  S
C1609      C1610   1.347       .  D
C1609      H1611   1.087       .  S
C1613      C1614   1.346       .  D
C1613      H1615   1.087       .  S
C1614      H1616   1.086   1_554  S
C1617      C1618   1.350       .  D
C1617      H1619   1.085       .  S
C1618      H1620   1.082       .  S
C1621      C1622   1.356   1_556  D
C1621      H1623   1.089   1_556  S
C1622      H1624   1.083       .  S
C1625      C1626   1.348       .  D
C1625      H1627   1.087       .  S
C1626      H1628   1.086       .  S
C1629      C1630   1.351       .  D
C1629      H1631   1.085       .  S
C1630      H1632   1.087       .  S
C1633      C1634   1.343       .  D
C1633      H1635   1.086   1_556  S
C1634      H1636   1.088       .  S
C1637      C1638   1.339       .  D
C1637      H1639   1.087       .  S
C1638      H1640   1.087       .  S
C1641      C1642   1.350       .  D
C1641      H1643   1.086       .  S
C1642      H1644   1.086       .  S
C1645      C1646   1.345       .  D
C1646      H1648   1.087       .  S
C1649      C1650   1.350       .  D
C1649      H1651   1.088       .  S
C1650      H1652   1.087       .  S
C1653      C1654   1.354       .  D
C1653      H1655   1.087       .  S
C1657      C1658   1.354       .  D
C1657      H1659   1.085       .  S
C1658      H1660   1.084       .  S
C1661      C1662   1.339       .  D
C1661      H1663   1.087       .  S
C1662      H1664   1.087       .  S
C1665      C1666   1.344       .  D
C1665      H1667   1.088       .  S
C1666      H1668   1.082       .  S
C1669      C1670   1.344       .  D
C1669      H1671   1.086       .  S
C1670      H1672   1.087       .  S
C1673      C1674   1.344       .  D
C1673      H1675   1.088       .  S
C1674      H1676   1.086       .  S
C1677      C1678   1.347       .  D
C1677      H1679   1.087       .  S
C1678      H1680   1.087       .  S
C1681      C1682   1.350       .  D
C1682      H1684   1.086       .  S
C1685      C1686   1.352       .  D
C1685      H1687   1.087       .  S
C1686      H1688   1.085       .  S
C1689      C1690   1.350       .  D
C1689      H1691   1.086       .  S
C1690      H1692   1.085       .  S
C1693      C1694   1.346       .  D
C1693      H1695   1.088       .  S
C1694      H1696   1.085       .  S
C1697      C1698   1.351       .  D
C1697      H1699   1.087       .  S
C1698      H1700   1.085       .  S
C1701      C1702   1.347       .  D
C1701      H1703   1.087       .  S
C1702      H1704   1.086       .  S
C1705      C1706   1.352       .  D
C1705      H1707   1.084       .  S
C1706      H1708   1.083       .  S
C1709      C1710   1.351       .  D
C1709      H1711   1.082       .  S
C1710      H1712   1.088       .  S
C1713      C1714   1.346       .  D
C1713      H1715   1.087       .  S
C1714      H1716   1.086       .  S
C1717      C1718   1.348       .  D
C1717      H1719   1.086       .  S
C1718      H1720   1.087       .  S
C1721      C1722   1.350       .  D
C1721      H1723   1.086       .  S
C1722      H1724   1.087       .  S
C1725      C1726   1.339       .  D
C1725      H1727   1.088       .  S
C1726      H1728   1.086       .  S
