geometry optimzed in LAMMPS
_audit_creation_date              2020-12-01 
_audit_creation_method            'lammps2cif' 
_symmetry_space_group_name_H-M    'P1' 
_symmetry_Int_Tables_number       1 
_symmetry_cell_setting            triclinic 
loop_ 
_symmetry_equiv_pos_as_xyz 
  x,y,z 
_cell_length_a                    39.65276474 
_cell_length_b                    39.651923424357705 
_cell_length_c                    50.823179404365185 
_cell_angle_alpha                 89.98388008160018 
_cell_angle_beta                  90.0055451336849 
_cell_angle_gamma                 121.17709457570633 
loop_ 
_atom_site_label 
_atom_site_type_symbol 
_atom_site_fract_x 
_atom_site_fract_y 
_atom_site_fract_z 
_atom_site_charge 
N1          N  0.23382141  0.38983968  0.29476113    -0.26600
N2          N  0.20674551  0.35508049  0.28526700    -0.34400
C3          C  0.20572712  0.32660371  0.30048307     0.01800
C4          C  0.23386475  0.34463951  0.32008651     0.07800
C5          C  0.25096356  0.38452466  0.31575999    -0.05300
H6          H  0.18703280  0.29529174  0.29695426     0.08500
H7          H  0.27462043  0.40817059  0.32693444     0.09700
Cu8        Cu  0.17457906  0.34881485  0.25109073     0.44200
Cu9        Cu  0.24863453  0.44434132  0.27992850     0.42000
Cu10       Cu  0.19798566  0.44454193  0.22433251     0.43900
N11         N  0.14815938  0.35585723  0.21759366    -0.34000
N12         N  0.15665665  0.39086123  0.20888639    -0.28200
C13         C  0.13358648  0.38631508  0.18832307    -0.04300
C14         C  0.10950124  0.34664047  0.18345474     0.07900
C15         C  0.11944522  0.32791494  0.20227058     0.01700
H16         H  0.13409520  0.41032631  0.17783404     0.09300
H17         H  0.10592298  0.29648761  0.20518937     0.08400
N18         N  0.23984495  0.49616788  0.24185864    -0.35400
N19         N  0.25913476  0.49626537  0.26303129    -0.27600
C20         C  0.28415258  0.53374664  0.27045393    -0.02800
C21         C  0.28011278  0.55805908  0.25295159     0.05800
C22         C  0.25189882  0.53348256  0.23505702     0.03900
H23         H  0.30357799  0.54252324  0.28730754     0.09000
H24         H  0.24080265  0.54196294  0.21846337     0.07800
N25         N  0.36251856  0.25744733  0.45810307    -0.26600
N26         N  0.32769631  0.23049175  0.46759837    -0.34400
C27         C  0.29931547  0.23026582  0.45273730     0.01800
C28         C  0.31749658  0.25880243  0.43338981     0.07800
C29         C  0.35734549  0.27531633  0.43748195    -0.05300
H30         H  0.26799359  0.21177560  0.45631773     0.08500
H31         H  0.38107434  0.29897679  0.42635343     0.09700
Cu32       Cu  0.32112805  0.19739655  0.00132439     0.44200
Cu33       Cu  0.41698295  0.27120322  0.47232650     0.42000
Cu34       Cu  0.41681945  0.21978148  0.02755157     0.43900
N35         N  0.32805275  0.17083358  0.03476722    -0.34000
N36         N  0.36304543  0.17894549  0.04322105    -0.28200
C37         C  0.35851787  0.15632175  0.06403632    -0.04300
C38         C  0.31889157  0.13294776  0.06936811     0.07900
C39         C  0.30014182  0.14281795  0.05052025     0.01700
H40         H  0.38253416  0.15679818  0.07448960     0.09300
H41         H  0.26871873  0.12985881  0.04796451     0.08400
N42         N  0.46859309  0.26190471  0.01025394    -0.35400
N43         N  0.46880331  0.28143666  0.48918178    -0.27600
C44         C  0.50632190  0.30675799  0.48197836    -0.02800
C45         C  0.53055611  0.30267448  0.99952056     0.05800
C46         C  0.50588696  0.27412054  0.01721560     0.03900
H47         H  0.51517927  0.32651231  0.46529469     0.09000
H48         H  0.51429728  0.26298066  0.03382149     0.07800
N49         N  0.23130027  0.38858356  0.45828609    -0.26600
N50         N  0.20426381  0.35374027  0.46770999    -0.34400
C51         C  0.20396923  0.32539977  0.45276373     0.01800
C52         C  0.23254192  0.34363645  0.43343809     0.07800
C53         C  0.24914185  0.38346744  0.43763322    -0.05300
H54         H  0.18541054  0.29406323  0.45627034     0.08500
H55         H  0.27285327  0.40722767  0.42655676     0.09700
Cu56       Cu  0.17116409  0.34713514  0.00145356     0.44200
Cu57       Cu  0.24523372  0.44303335  0.47261099     0.42000
Cu58       Cu  0.19429016  0.44294923  0.02799445     0.43900
N59         N  0.14467841  0.35414246  0.03491259    -0.34000
N60         N  0.15303594  0.38916548  0.04347345    -0.28200
C61         C  0.13033793  0.38466098  0.06423960    -0.04300
C62         C  0.10668568  0.34501932  0.06943763     0.07900
C63         C  0.11645505  0.32623973  0.05055874     0.01700
H64         H  0.13098419  0.40870492  0.07476818     0.09300
H65         H  0.10329855  0.29480769  0.04791358     0.08400
N66         N  0.23626834  0.49473231  0.01059832    -0.35400
N67         N  0.25560598  0.49490913  0.48943434    -0.27600
C68         C  0.28085671  0.53241762  0.48216291    -0.02800
C69         C  0.27693215  0.55668725  0.99976042     0.05800
C70         C  0.24854173  0.53204084  0.01755376     0.03900
H71         H  0.30049183  0.54124448  0.46541889     0.09000
H72         H  0.23758099  0.54048020  0.03423941     0.07800
N73         N  0.81503042  0.18480900  0.29706618    -0.26600
N74         N  0.84155897  0.17727342  0.28760914    -0.34400
C75         C  0.84151540  0.14910000  0.30252810     0.01800
C76         C  0.81322678  0.13826660  0.32192050     0.07800
C77         C  0.79709716  0.16139954  0.31782025    -0.05300
H78         H  0.85946540  0.13634291  0.29883541     0.08500
H79         H  0.77348951  0.16083618  0.32887705     0.09700
Cu80       Cu  0.87392307  0.20336284  0.25359516     0.44200
Cu81       Cu  0.80155936  0.22479129  0.28177080     0.42000
Cu82       Cu  0.84937484  0.27243526  0.22362151     0.43900
N83         N  0.89965787  0.23531527  0.21937750    -0.34000
N84         N  0.89110027  0.26086052  0.20943767    -0.28200
C85         C  0.91407950  0.27857442  0.18850023    -0.04300
C86         C  0.93794123  0.26324543  0.18471882     0.07900
C87         C  0.92807406  0.23571698  0.20453316     0.01700
H88         H  0.91350919  0.30117002  0.17690685     0.09300
H89         H  0.94140229  0.21833180  0.20841295     0.08400
N90         N  0.80769316  0.28155668  0.24085140    -0.35400
N91         N  0.78977002  0.26376296  0.26292290    -0.27600
C92         C  0.76479963  0.27561600  0.26989809    -0.02800
C93         C  0.76737079  0.30210631  0.25120370     0.05800
C94         C  0.79475550  0.30531714  0.23305595     0.03900
H95         H  0.74652104  0.26596322  0.28734453     0.09000
H96         H  0.80487188  0.32379448  0.21570179     0.07800
N97         N  0.81209888  0.18102648  0.46003318    -0.26600
N98         N  0.83839752  0.17328697  0.46966454    -0.34400
C99         C  0.83888977  0.14559749  0.45450614     0.01800
C100        C  0.81119002  0.13531956  0.43476006     0.07800
C101        C  0.79484949  0.15824382  0.43893094    -0.05300
H102        H  0.85692014  0.13292167  0.45817829     0.08500
H103        H  0.77169698  0.15811696  0.42757701     0.09700
Cu104      Cu  0.87007207  0.19897674  0.00396657     0.44200
Cu105      Cu  0.79852989  0.22104032  0.47515851     0.42000
Cu106      Cu  0.84572833  0.26876866  0.03342216     0.43900
N107        N  0.89578554  0.23138345  0.03802683    -0.34000
N108        N  0.88721401  0.25698809  0.04784054    -0.28200
C109        C  0.91069581  0.27536133  0.06845948    -0.04300
C110        C  0.93494164  0.26046003  0.07212524     0.07900
C111        C  0.92473123  0.23244389  0.05262410     0.01700
H112        H  0.91044325  0.29835543  0.07976130     0.09300
H113        H  0.93836689  0.21536779  0.04865717     0.08400
N114        N  0.80554605  0.27925068  0.01522155    -0.35400
N115        N  0.78784940  0.26140213  0.49311436    -0.27600
C116        C  0.76385786  0.27415411  0.48547130    -0.02800
C117        C  0.76683123  0.30129930  0.00375814     0.05800
C118        C  0.79343505  0.30394704  0.02236911     0.03900
H119        H  0.74582130  0.26451204  0.46791641     0.09000
H120        H  0.80343479  0.32251863  0.03967481     0.07800
C121        C  0.70959536  0.36202648  0.00247987     0.80900
N122        N  0.73028395  0.40198669  0.00372666    -0.77400
C123        C  0.71100671  0.42199348  0.00355620     0.83400
N124        N  0.67110657  0.40208607  0.00213260    -0.77300
C125        C  0.65044869  0.36216750  0.00085804     0.83500
N126        N  0.66966863  0.34211433  0.00104573    -0.79000
N127        N  0.81568669  0.70965405  0.04611801    -0.26600
N128        N  0.84238767  0.74444443  0.03645189    -0.34400
C129        C  0.84269280  0.77284635  0.05129914     0.01800
C130        C  0.81443078  0.75469832  0.07079690     0.07800
C131        C  0.79804362  0.71484558  0.06686156    -0.05300
H132        H  0.86091123  0.80414768  0.04754006     0.08500
H133        H  0.77452883  0.69114489  0.07809558     0.09700
Cu134      Cu  0.87461127  0.75091027  0.50233659     0.44200
Cu135      Cu  0.80188240  0.65534178  0.03172371     0.42000
Cu136      Cu  0.85357091  0.65565864  0.47646346     0.43900
N137        N  0.90059552  0.74432580  0.46849591    -0.38200
N138        N  0.89283646  0.70946382  0.46002322    -0.28200
C139        C  0.91534850  0.71426383  0.43908418    -0.04300
C140        C  0.93837914  0.75394492  0.43376208     0.07900
C141        C  0.92831648  0.77241833  0.45269137     0.01700
H142        H  0.91542580  0.69044060  0.42876122     0.09300
H143        H  0.94124501  0.80380546  0.45542707     0.08400
N144        N  0.81238363  0.60390353  0.49435347    -0.35400
N145        N  0.79258955  0.60367031  0.01528159    -0.27600
C146        C  0.76747313  0.56616335  0.02260675    -0.02800
C147        C  0.77197754  0.54193456  0.00531906     0.05800
C148        C  0.80055922  0.56661039  0.48763387     0.03900
H149        H  0.74740209  0.55730478  0.03911035     0.09000
H150        H  0.81173051  0.55819095  0.47105885     0.07800
O151        O  0.06593430  0.35123976  0.15431294    -0.72200
O152        O  0.98124410  0.30963389  0.10036988    -0.73200
O153        O  0.98292384  0.31099550  0.15522330    -0.61800
O154        O  0.06423466  0.35008074  0.09923288    -0.70200
O155        O  0.06277872  0.29332993  0.09866025    -0.69800
O156        O  0.98034857  0.25369077  0.15631472    -0.61100
O157        O  0.97895329  0.25245148  0.09978246    -0.73600
O158        O  0.06414542  0.29432874  0.15535376    -0.72300
Cu159      Cu  0.02370554  0.33236019  0.12727169     1.04600
Cu160      Cu  0.02148997  0.27129206  0.12753728     1.04300
C161        C  0.07833937  0.32965335  0.16349423     0.94000
C162        C  0.96662350  0.27466773  0.09158259     0.93100
C163        C  0.96863202  0.27639678  0.16458500     0.85200
C164        C  0.07636897  0.32832879  0.08998698     0.91500
N165        N  0.15880736  0.84073931  0.29677771    -0.26600
N166        N  0.15127707  0.86733020  0.28742064    -0.34400
C167        C  0.12312782  0.86721669  0.30240998     0.01800
C168        C  0.11230708  0.83881938  0.32173994     0.07800
C169        C  0.13542752  0.82270707  0.31752690    -0.05300
H170        H  0.11039272  0.88521292  0.29881783     0.08500
H171        H  0.13490104  0.79906272  0.32852135     0.09700
Cu172      Cu  0.17736934  0.89986754  0.25342801     0.44200
Cu173      Cu  0.19884096  0.82737532  0.28142283     0.42000
Cu174      Cu  0.24646487  0.87538785  0.22331269     0.43900
N175        N  0.20921986  0.92558211  0.21914617    -0.34000
N176        N  0.23475675  0.91704972  0.20916297    -0.28200
C177        C  0.25245763  0.94008878  0.18824313    -0.04300
C178        C  0.23712772  0.96396261  0.18451316     0.07900
C179        C  0.20960549  0.95403054  0.20433648     0.01700
H180        H  0.27507134  0.93957659  0.17664200     0.09300
H181        H  0.19224560  0.96736959  0.20826343     0.08400
N182        N  0.25597088  0.83400793  0.24063492    -0.35400
N183        N  0.23823100  0.81603575  0.26270776    -0.27600
C184        C  0.25029607  0.79123051  0.26969882    -0.02800
C185        C  0.27684975  0.79395070  0.25100268     0.05800
C186        C  0.27988335  0.82125738  0.23284798     0.03900
H187        H  0.24064849  0.77287120  0.28711055     0.09000
H188        H  0.29826779  0.83137320  0.21545368     0.07800
C189        C  0.33751555  0.73667052  0.25086230     0.80900
N190        N  0.31797221  0.69674961  0.25221699    -0.77400
C191        C  0.33839892  0.67791051  0.25229688     0.83400
N192        N  0.37831354  0.69894155  0.25101267    -0.77300
C193        C  0.39785201  0.73883417  0.24965213     0.83500
N194        N  0.37747270  0.75773243  0.24957313    -0.79000
N195        N  0.68557698  0.84466544  0.20653637    -0.26600
N196        N  0.72042681  0.87087226  0.21638886    -0.34400
C197        C  0.74868345  0.87017787  0.20197975     0.01800
C198        C  0.73036983  0.84175420  0.18260499     0.07800
C199        C  0.69058361  0.82633778  0.18613053    -0.05300
H200        H  0.77995916  0.88780660  0.20597750     0.08500
H201        H  0.66678647  0.80300644  0.17485272     0.09700
Cu202      Cu  0.72717433  0.90361962  0.25030056     0.44200
Cu203      Cu  0.63131642  0.83196061  0.22040421     0.42000
Cu204      Cu  0.63172342  0.88280098  0.27599877     0.43900
N205        N  0.72047815  0.92952890  0.28417227    -0.34000
N206        N  0.68558423  0.92188152  0.29250345    -0.28200
C207        C  0.69026062  0.94401712  0.31362590    -0.04300
C208        C  0.72987773  0.96667016  0.31925325     0.07900
C209        C  0.74846028  0.95679153  0.30027855     0.01700
H210        H  0.66638524  0.94394506  0.32395988     0.09300
H211        H  0.77985057  0.96940850  0.29780141     0.08400
N212        N  0.57983209  0.84152431  0.25826721    -0.35400
N213        N  0.57957425  0.82206417  0.23714863    -0.27600
C214        C  0.54204453  0.79670380  0.22998977    -0.02800
C215        C  0.51781835  0.80071684  0.24757651     0.05800
C216        C  0.54253051  0.82925222  0.26527308     0.03900
H217        H  0.53316899  0.77679342  0.21339709     0.09000
H218        H  0.53413110  0.84009444  0.28204299     0.07800
N219        N  0.36343313  0.25941739  0.29505481    -0.26600
N220        N  0.32864767  0.23255915  0.28546399    -0.34400
C221        C  0.30021470  0.23178891  0.30057985     0.01800
C222        C  0.31830782  0.25986830  0.32020760     0.07800
C223        C  0.35817928  0.27667147  0.31600886    -0.05300
H224        H  0.26890229  0.21330936  0.29696341     0.08500
H225        H  0.38186146  0.30020100  0.32723956     0.09700
Cu226      Cu  0.32224611  0.20036177  0.25127584     0.44200
Cu227      Cu  0.41791484  0.27389429  0.28040059     0.42000
Cu228      Cu  0.41800080  0.22346180  0.22476613     0.43900
N229        N  0.32931757  0.17399536  0.21776322    -0.34000
N230        N  0.36433545  0.18240118  0.20915780    -0.28200
C231        C  0.35984086  0.15945504  0.18853943    -0.04300
C232        C  0.32018975  0.13553468  0.18352410     0.07900
C233        C  0.30141694  0.14544990  0.20231741     0.01700
H234        H  0.38387355  0.15992167  0.17811841     0.09300
H235        H  0.26998134  0.13201496  0.20513760     0.08400
N236        N  0.46969936  0.26525346  0.24225724    -0.35400
N237        N  0.46982478  0.28445212  0.26348032    -0.27600
C238        C  0.50730970  0.30945102  0.27089832    -0.02800
C239        C  0.53160341  0.30550221  0.25333843     0.05800
C240        C  0.50700838  0.27735565  0.23541141     0.03900
H241        H  0.51610272  0.32879610  0.28779381     0.09000
H242        H  0.51547090  0.26632178  0.21877801     0.07800
C243        C  0.71021062  0.36286582  0.25162121     0.80900
N244        N  0.73127707  0.40282429  0.25038413    -0.77400
C245        C  0.71237883  0.42320035  0.25046479     0.83400
N246        N  0.67248477  0.40366243  0.25176913    -0.77300
C247        C  0.65145142  0.36374473  0.25300808     0.83500
N248        N  0.67028899  0.34331832  0.25292588    -0.79000
N249        N  0.81799144  0.71086702  0.20717579    -0.26600
N250        N  0.84453650  0.74570364  0.21686496    -0.34400
C251        C  0.84421548  0.77402372  0.20228500     0.01800
C252        C  0.81569340  0.75576471  0.18296171     0.07800
C253        C  0.79982296  0.71594821  0.18670366    -0.05300
H254        H  0.86220146  0.80532234  0.20611267     0.08500
H255        H  0.77632632  0.69218494  0.17550403     0.09700
Cu256      Cu  0.87734650  0.75237785  0.25071768     0.44200
Cu257      Cu  0.80484408  0.65654464  0.22119087     0.42000
Cu258      Cu  0.85669328  0.65700367  0.27626866     0.43900
N259        N  0.90337339  0.74568719  0.28451486    -0.34000
N260        N  0.89579359  0.71079819  0.29280917    -0.28200
C261        C  0.91801955  0.71547696  0.31388402    -0.04300
C262        C  0.94066559  0.75509297  0.31950804     0.07900
C263        C  0.93068217  0.77366930  0.30059052     0.01700
H264        H  0.91802352  0.69159391  0.32418667     0.09300
H265        H  0.94326748  0.80505585  0.29812341     0.08400
N266        N  0.81522081  0.60514020  0.25864659    -0.35400
N267        N  0.79535178  0.60484525  0.23774362    -0.27600
C268        C  0.76991410  0.56730466  0.23065338    -0.02800
C269        C  0.77430333  0.54312270  0.24806891     0.05800
C270        C  0.80313615  0.56786004  0.26558657     0.03900
H271        H  0.74967346  0.55839421  0.21424542     0.09000
H272        H  0.81427386  0.55949312  0.28221324     0.07800
N273        N  0.15542409  0.83781982  0.46016540    -0.26600
N274        N  0.14778810  0.86426436  0.46964705    -0.34400
C275        C  0.12016203  0.86475023  0.45440263     0.01800
C276        C  0.10980328  0.83689087  0.43475674     0.07800
C277        C  0.13262666  0.82046667  0.43907918    -0.05300
H278        H  0.10756960  0.88288106  0.45795544     0.08500
H279        H  0.13242105  0.79718725  0.42783722     0.09700
Cu280      Cu  0.17348387  0.89609473  0.00390892     0.44200
Cu281      Cu  0.19540578  0.82428829  0.47546262     0.42000
Cu282      Cu  0.24296719  0.87162809  0.03381132     0.43900
N283        N  0.20577721  0.92191240  0.03800214    -0.34000
N284        N  0.23129362  0.91332447  0.04796888    -0.28200
C285        C  0.24962045  0.93691213  0.06855457    -0.04300
C286        C  0.23475653  0.96122395  0.07204783     0.07900
C287        C  0.20682574  0.95095104  0.05247511     0.01700
H288        H  0.27252508  0.93665623  0.07996936     0.09300
H289        H  0.18978578  0.96459150  0.04838355     0.08400
N290        N  0.25369608  0.83160835  0.01561973    -0.35400
N291        N  0.23599670  0.81393779  0.49346743    -0.27600
C292        C  0.24895347  0.79010485  0.48585108    -0.02800
C293        C  0.27605368  0.79313459  0.00420953     0.05800
C294        C  0.27847135  0.81961817  0.02282837     0.03900
H295        H  0.23942416  0.77207852  0.46829237     0.09000
H296        H  0.29691485  0.82959116  0.04019638     0.07800
C297        C  0.33671506  0.73580716  0.00325767     0.80900
N298        N  0.37667433  0.75642539  0.00454935    -0.77400
C299        C  0.39662026  0.73708435  0.00431053     0.83400
N300        N  0.37664792  0.69718809  0.00277437    -0.77300
C301        C  0.33673039  0.67659903  0.00145587     0.83500
N302        N  0.31674494  0.69588747  0.00170238    -0.79000
N303        N  0.68443190  0.84142914  0.04606257    -0.26600
N304        N  0.71922272  0.86797997  0.03632054    -0.34400
C305        C  0.74761806  0.86815596  0.05110828     0.01800
C306        C  0.72946065  0.83995418  0.07064251     0.07800
C307        C  0.68961150  0.82374462  0.06679383    -0.05300
H308        H  0.77891155  0.88624685  0.04728728     0.08500
H309        H  0.66590351  0.80032976  0.07808418     0.09700
Cu310      Cu  0.72563915  0.90014568  0.00217816     0.44200
Cu311      Cu  0.63013779  0.82785820  0.03174778     0.42000
Cu312      Cu  0.63022704  0.87919756  0.47634049     0.43900
N313        N  0.71895501  0.92613716  0.46836279    -0.34000
N314        N  0.68409150  0.91844199  0.45992503    -0.28200
C315        C  0.68889610  0.94097161  0.43898961    -0.04300
C316        C  0.72856982  0.96393562  0.43362696     0.07900
C317        C  0.74704023  0.95382755  0.45253669     0.01700
H318        H  0.66507950  0.94110168  0.42869189     0.09300
H319        H  0.77842657  0.96670348  0.45524446     0.08400
N320        N  0.57851157  0.83804612  0.49432397    -0.35400
N321        N  0.57838969  0.81842393  0.01532431    -0.27600
C322        C  0.54092641  0.79340004  0.02277565    -0.02800
C323        C  0.51659484  0.79777473  0.00549971     0.05800
C324        C  0.54117557  0.82618974  0.48768256     0.03900
H325        H  0.53216574  0.77351630  0.03938401     0.09000
H326        H  0.53266285  0.83727716  0.47110274     0.07800
O327        O  0.72489308  0.00881763  0.34932360    -0.72200
O328        O  0.76374337  0.09016187  0.40520758    -0.73200
O329        O  0.76465601  0.09171770  0.35037963    -0.61800
O330        O  0.72407503  0.00729345  0.40434567    -0.70200
O331        O  0.78099659  0.00912559  0.40529369    -0.69800
O332        O  0.82213853  0.09466869  0.34961259    -0.61100
O333        O  0.82122911  0.09314239  0.40628513    -0.73600
O334        O  0.78178858  0.01060341  0.34847458    -0.72300
Cu335      Cu  0.74251467  0.04935097  0.37730905     1.04600
Cu336      Cu  0.80375620  0.05197015  0.37741627     1.04300
C337        C  0.74668908  0.99684268  0.33992548     0.94000
C338        C  0.79835837  0.10467459  0.41456860     0.93100
C339        C  0.79959382  0.10668170  0.34148620     0.85200
C340        C  0.74568145  0.99492484  0.41351132     0.91500
O341        O  0.78234125  0.84904482  0.09839448    -0.72200
O342        O  0.82419273  0.80831026  0.15508668    -0.73200
O343        O  0.82361740  0.80762562  0.09851309    -0.61800
O344        O  0.78291434  0.84980384  0.15495242    -0.70200
O345        O  0.72603982  0.79261515  0.15445421    -0.69800
O346        O  0.76634093  0.75088078  0.09975221    -0.61100
O347        O  0.76685797  0.75158516  0.15460469    -0.73600
O348        O  0.72553518  0.79182557  0.09960898    -0.72300
Cu349      Cu  0.80544775  0.83086938  0.12673374     1.04600
Cu350      Cu  0.74437409  0.76990292  0.12713026     1.04300
C351        C  0.74694370  0.82653604  0.09036201     0.94000
C352        C  0.80181126  0.77306845  0.16343789     0.93100
C353        C  0.80106630  0.77222332  0.09051226     0.85200
C354        C  0.74761013  0.82759157  0.16323567     0.91500
O355        O  0.26799225  0.09024772  0.15528948    -0.72200
O356        O  0.22652627  0.00516767  0.09962368    -0.73200
O357        O  0.22756732  0.00643043  0.15615505    -0.61800
O358        O  0.26716469  0.08900735  0.09857083    -0.70200
O359        O  0.32399059  0.09062162  0.09924936    -0.69800
O360        O  0.28495651  0.00917956  0.15514795    -0.61100
O361        O  0.28380232  0.00765714  0.10030316    -0.73600
O362        O  0.32497019  0.09217425  0.15432212    -0.72300
Cu363      Cu  0.24514824  0.04764436  0.12741590     1.04600
Cu364      Cu  0.30630583  0.05004658  0.12724540     1.04300
C365        C  0.30329715  0.10447476  0.16349139     0.94000
C366        C  0.24884688  0.99293851  0.09147176     0.93100
C367        C  0.25030711  0.99475898  0.16444303     0.85200
C368        C  0.30219914  0.10267762  0.08994949     0.91500
O369        O  0.06597868  0.79022277  0.35032029    -0.72200
O370        O  0.98176058  0.74950274  0.40447367    -0.73200
O371        O  0.98303758  0.75022912  0.34945750    -0.61800
O372        O  0.06467446  0.78937309  0.40519810    -0.70200
O373        O  0.06751673  0.84679046  0.40626606    -0.69800
O374        O  0.98469416  0.80706410  0.34862861    -0.61100
O375        O  0.98348588  0.80637298  0.40541733    -0.73600
O376        O  0.06876820  0.84762649  0.34956885    -0.72300
Cu377      Cu  0.02372789  0.76800567  0.37735730     1.04600
Cu378      Cu  0.02619881  0.82917370  0.37747049     1.04300
C379        C  0.08081537  0.82513782  0.34139361     0.94000
C380        C  0.96935377  0.77107138  0.41364461     0.93100
C381        C  0.97094426  0.77195777  0.34010569     0.85200
C382        C  0.07914261  0.82398908  0.41454879     0.91500
O383        O  0.28138097  0.34839044  0.34955381    -0.72200
O384        O  0.32163363  0.30708102  0.40451716    -0.73200
O385        O  0.32216162  0.30754003  0.34958429    -0.61800
O386        O  0.28080600  0.34785434  0.40450449    -0.70200
O387        O  0.22349461  0.29114064  0.40514587    -0.69800
O388        O  0.26543235  0.25028251  0.34833838    -0.61100
O389        O  0.26492319  0.24976457  0.40516261    -0.73600
O390        O  0.22406929  0.29172071  0.34830215    -0.72300
Cu391      Cu  0.30326098  0.32948632  0.37705705     1.04600
Cu392      Cu  0.24225741  0.26850814  0.37673266     1.04300
C393        C  0.24675587  0.32706704  0.34017525     0.94000
C394        C  0.30015229  0.27224991  0.41353954     0.93100
C395        C  0.30079332  0.27290181  0.34023048     0.85200
C396        C  0.24597929  0.32635452  0.41353717     0.91500
C397        C  0.43883729  0.75876072  0.00525546    -0.12600
C398        C  0.47432465  0.77660843  0.00563594    -0.14100
C399        C  0.31554246  0.75616504  0.00361811    -0.12600
C400        C  0.29755970  0.77306969  0.00390177    -0.14100
C401        C  0.73448067  0.46538612  0.24919119    -0.12600
C402        C  0.75267345  0.50085767  0.24841139    -0.14100
C403        C  0.57382489  0.32606063  0.25372004    -0.12600
C404        C  0.60927521  0.34316395  0.25362611    -0.14100
C405        C  0.47553944  0.77912032  0.24783091    -0.12600
C406        C  0.44005601  0.76094458  0.24849380    -0.14100
C407        C  0.29791902  0.77346102  0.25085406    -0.12600
C408        C  0.31593106  0.75659506  0.25080932    -0.14100
C409        C  0.73273986  0.46419235  0.00467164    -0.12600
C410        C  0.75067198  0.49967016  0.00524891    -0.14100
C411        C  0.74675353  0.32278338  0.00332478    -0.12600
C412        C  0.72987733  0.34078764  0.00292754    -0.14100
C413        C  0.74693424  0.32322023  0.25119767    -0.12600
C414        C  0.73011122  0.34126852  0.25135307    -0.14100
C415        C  0.31567779  0.63441556  0.00030060    -0.12600
C416        C  0.29809251  0.59894633  0.99975760    -0.14100
C417        C  0.57280234  0.32370708  0.99946739    -0.12600
C418        C  0.60826625  0.34119039  0.99988831    -0.14100
C419        C  0.31782602  0.63573671  0.25308219    -0.12600
C420        C  0.30071572  0.60028515  0.25329458    -0.14100
N421        N  0.23382212  0.38984019  0.79476144    -0.26600
N422        N  0.20674641  0.35508103  0.78526713    -0.34400
C423        C  0.20572814  0.32660424  0.80048303     0.01800
C424        C  0.23386555  0.34463984  0.82008653     0.07800
C425        C  0.25096420  0.38452503  0.81576028    -0.05300
H426        H  0.18703374  0.29529195  0.79695401     0.08500
H427        H  0.27462068  0.40817079  0.82693496     0.09700
Cu428      Cu  0.17457992  0.34881520  0.75109090     0.44200
Cu429      Cu  0.24863458  0.44434188  0.77992933     0.42000
Cu430      Cu  0.19798649  0.44454167  0.72433253     0.43900
N431        N  0.14815968  0.35585700  0.71759383    -0.34000
N432        N  0.15665698  0.39086094  0.70888645    -0.28200
C433        C  0.13358638  0.38631471  0.68832333    -0.04300
C434        C  0.10950090  0.34664002  0.68345521     0.07900
C435        C  0.11944509  0.32791455  0.70227100     0.01700
H436        H  0.13409501  0.41032572  0.67783438     0.09300
H437        H  0.10592289  0.29648750  0.70518993     0.08400
N438        N  0.23984489  0.49616780  0.74185910    -0.35400
N439        N  0.25913429  0.49626554  0.76303203    -0.27600
C440        C  0.28415170  0.53374687  0.77045479    -0.02800
C441        C  0.28011198  0.55805909  0.75295220     0.05800
C442        C  0.25189854  0.53348242  0.73505739     0.03900
H443        H  0.30357669  0.54252354  0.78730840     0.09000
H444        H  0.24080278  0.54196260  0.71846352     0.07800
N445        N  0.36251787  0.25744719  0.95810346    -0.26600
N446        N  0.32769558  0.23049086  0.96759831    -0.34400
C447        C  0.29931484  0.23026493  0.95273714     0.01800
C448        C  0.31749599  0.25880216  0.93339005     0.07800
C449        C  0.35734490  0.27531658  0.93748253    -0.05300
H450        H  0.26799273  0.21177401  0.95631720     0.08500
H451        H  0.38107368  0.29897740  0.92635436     0.09700
Cu452      Cu  0.32112872  0.19739831  0.50132486     0.44200
Cu453      Cu  0.41698224  0.27120328  0.97232692     0.42000
Cu454      Cu  0.41681978  0.21978307  0.52755255     0.43900
N455        N  0.32805304  0.17083498  0.53476770    -0.34000
N456        N  0.36304566  0.17894683  0.54322164    -0.28200
C457        C  0.35851796  0.15632271  0.56403669    -0.04300
C458        C  0.31889165  0.13294852  0.56936825     0.07900
C459        C  0.30014200  0.14281893  0.55052046     0.01700
H460        H  0.38253427  0.15679911  0.57449004     0.09300
H461        H  0.26871889  0.12985966  0.54796460     0.08400
N462        N  0.46859349  0.26190612  0.51025476    -0.35400
N463        N  0.46880285  0.28143603  0.98918144    -0.27600
C464        C  0.50632145  0.30675746  0.98197802    -0.02800
C465        C  0.53055654  0.30267582  0.49952136     0.05800
C466        C  0.50588736  0.27412240  0.51721666     0.03900
H467        H  0.51517878  0.32651236  0.96529473     0.09000
H468        H  0.51429774  0.26298319  0.53382296     0.07800
N469        N  0.23130091  0.38858380  0.95828632    -0.26600
N470        N  0.20426416  0.35374049  0.96770998    -0.34400
C471        C  0.20396932  0.32539997  0.95276357     0.01800
C472        C  0.23254224  0.34363672  0.93343806     0.07800
C473        C  0.24914252  0.38346773  0.93763343    -0.05300
H474        H  0.18541042  0.29406370  0.95626992     0.08500
H475        H  0.27285412  0.40722796  0.92655713     0.09700
Cu476      Cu  0.17116411  0.34713519  0.50145377     0.44200
Cu477      Cu  0.24523448  0.44303341  0.97261160     0.42000
Cu478      Cu  0.19429069  0.44294932  0.52799448     0.43900
N479        N  0.14467851  0.35414265  0.53491280    -0.34000
N480        N  0.15303605  0.38916570  0.54347363    -0.28200
C481        C  0.13033796  0.38466116  0.56423974    -0.04300
C482        C  0.10668574  0.34501953  0.56943787     0.07900
C483        C  0.11645514  0.32623993  0.55055896     0.01700
H484        H  0.13098424  0.40870528  0.57476838     0.09300
H485        H  0.10329872  0.29480798  0.54791382     0.08400
N486        N  0.23626916  0.49473248  0.51059838    -0.35400
N487        N  0.25560569  0.49490903  0.98943457    -0.27600
C488        C  0.28085636  0.53241754  0.98216313    -0.02800
C489        C  0.27693325  0.55668746  0.49976050     0.05800
C490        C  0.24854307  0.53204107  0.51755400     0.03900
H491        H  0.30049197  0.54124442  0.96541952     0.09000
H492        H  0.23758260  0.54048053  0.53423989     0.07800
N493        N  0.81502936  0.18480742  0.79706606    -0.26600
N494        N  0.84155860  0.17727262  0.78760936    -0.34400
C495        C  0.84151560  0.14909968  0.80252854     0.01800
C496        C  0.81322657  0.13826579  0.82192072     0.07800
C497        C  0.79709619  0.16139797  0.81782013    -0.05300
H498        H  0.85946608  0.13634323  0.79883609     0.08500
H499        H  0.77348790  0.16083398  0.82887669     0.09700
Cu500      Cu  0.87392275  0.20336224  0.75359543     0.44200
Cu501      Cu  0.80155749  0.22478870  0.78177007     0.42000
Cu502      Cu  0.84937491  0.27243443  0.72362209     0.43900
N503        N  0.89965727  0.23531385  0.71937758    -0.34000
N504        N  0.89109969  0.26085909  0.70943775    -0.28200
C505        C  0.91407870  0.27857273  0.68850018    -0.04300
C506        C  0.93794033  0.26324359  0.68471872     0.07900
C507        C  0.92807326  0.23571526  0.70453316     0.01700
H508        H  0.91350851  0.30116837  0.67690691     0.09300
H509        H  0.94140153  0.21833021  0.70841304     0.08400
N510        N  0.80769289  0.28155564  0.74085159    -0.35400
N511        N  0.78976882  0.26376102  0.76292264    -0.27600
C512        C  0.76479836  0.27561398  0.76989775    -0.02800
C513        C  0.76737046  0.30210521  0.75120382     0.05800
C514        C  0.79475582  0.30531668  0.73305637     0.03900
H515        H  0.74651896  0.26596045  0.78734393     0.09000
H516        H  0.80487299  0.32379476  0.71570257     0.07800
N517        N  0.81209989  0.18102595  0.96003288    -0.26600
N518        N  0.83839866  0.17328666  0.96966427    -0.34400
C519        C  0.83889098  0.14559706  0.95450596     0.01800
C520        C  0.81119112  0.13531902  0.93475987     0.07800
C521        C  0.79485061  0.15824325  0.93893065    -0.05300
H522        H  0.85692112  0.13292138  0.95817816     0.08500
H523        H  0.77169801  0.15811623  0.92757672     0.09700
Cu524      Cu  0.87007109  0.19897679  0.50396679     0.44200
Cu525      Cu  0.79853021  0.22103947  0.97515795     0.42000
Cu526      Cu  0.84572911  0.26876931  0.53342257     0.43900
N527        N  0.89578549  0.23138331  0.53802693    -0.34000
N528        N  0.88721434  0.25698813  0.54784078    -0.28200
C529        C  0.91069626  0.27536110  0.56845966    -0.04300
C530        C  0.93494180  0.26045952  0.57212531     0.07900
C531        C  0.92473117  0.23244343  0.55262406     0.01700
H532        H  0.91044396  0.29835547  0.57976162     0.09300
H533        H  0.93836648  0.21536718  0.54865707     0.08400
N534        N  0.80554685  0.27925172  0.51522242    -0.35400
N535        N  0.78784890  0.26140091  0.99311347    -0.27600
C536        C  0.76385758  0.27415295  0.98546997    -0.02800
C537        C  0.76683166  0.30130017  0.50375974     0.05800
C538        C  0.79343582  0.30394789  0.52237039     0.03900
H539        H  0.74582154  0.26451099  0.96791487     0.09000
H540        H  0.80343554  0.32251918  0.53967631     0.07800
C541        C  0.70959508  0.36202635  0.50248246     0.80900
N542        N  0.73028408  0.40198655  0.50372902    -0.77400
C543        C  0.71100733  0.42199377  0.50355780     0.83400
N544        N  0.67110726  0.40208681  0.50213379    -0.77300
C545        C  0.65044896  0.36216823  0.50085949     0.83500
N546        N  0.66966840  0.34211458  0.50104789    -0.79000
N547        N  0.81568669  0.70965371  0.54611764    -0.26600
N548        N  0.84238779  0.74444414  0.53645165    -0.34400
C549        C  0.84269294  0.77284586  0.55129906     0.01800
C550        C  0.81443074  0.75469775  0.57079666     0.07800
C551        C  0.79804355  0.71484506  0.56686117    -0.05300
H552        H  0.86091175  0.80414752  0.54754015     0.08500
H553        H  0.77452862  0.69114419  0.57809512     0.09700
Cu554      Cu  0.87461104  0.75091024  0.00233675     0.44200
Cu555      Cu  0.80188242  0.65534173  0.53172331     0.42000
Cu556      Cu  0.85357119  0.65565873  0.97646406     0.43900
N557        N  0.90059572  0.74432587  0.96849616    -0.38200
N558        N  0.89283681  0.70946389  0.96002359    -0.28200
C559        C  0.91534867  0.71426383  0.93908441    -0.04300
C560        C  0.93837900  0.75394493  0.93376208     0.07900
C561        C  0.92831641  0.77241836  0.95269142     0.01700
H562        H  0.91542601  0.69044075  0.92876159     0.09300
H563        H  0.94124472  0.80380548  0.95542698     0.08400
N564        N  0.81238282  0.60390350  0.99435354    -0.35400
N565        N  0.79259059  0.60367044  0.51528162    -0.27600
C566        C  0.76747475  0.56616359  0.52260717    -0.02800
C567        C  0.77197932  0.54193474  0.50531967     0.05800
C568        C  0.80055801  0.56661039  0.98763362     0.03900
H569        H  0.74740378  0.55730509  0.53911082     0.09000
H570        H  0.81172960  0.55819110  0.97105871     0.07800
O571        O  0.06593374  0.35123914  0.65431345    -0.72200
O572        O  0.98124394  0.30963309  0.60037013    -0.73200
O573        O  0.98292313  0.31099409  0.65522353    -0.61800
O574        O  0.06423460  0.35008066  0.59923332    -0.70200
O575        O  0.06277900  0.29333005  0.59866061    -0.69800
O576        O  0.98034833  0.25368960  0.65631479    -0.61100
O577        O  0.97895348  0.25245086  0.59978248    -0.73600
O578        O  0.06414513  0.29432825  0.65535420    -0.72300
Cu579      Cu  0.02370513  0.33235942  0.62727207     1.04600
Cu580      Cu  0.02148998  0.27129154  0.62753750     1.04300
C581        C  0.07833891  0.32965281  0.66349474     0.94000
C582        C  0.96662359  0.27466704  0.59158267     0.93100
C583        C  0.96863141  0.27639530  0.66458507     0.85200
C584        C  0.07636909  0.32832889  0.58998735     0.91500
N585        N  0.15880706  0.84073907  0.79677741    -0.26600
N586        N  0.15127749  0.86733058  0.78742057    -0.34400
C587        C  0.12312854  0.86721749  0.80241002     0.01800
C588        C  0.11230723  0.83881979  0.82173980     0.07800
C589        C  0.13542707  0.82270689  0.81752652    -0.05300
H590        H  0.11039408  0.88521436  0.79881809     0.08500
H591        H  0.13490003  0.79906199  0.82852083     0.09700
Cu592      Cu  0.17737076  0.89986844  0.75342824     0.44200
Cu593      Cu  0.19883988  0.82737421  0.78142226     0.42000
Cu594      Cu  0.24646591  0.87538853  0.72331270     0.43900
N595        N  0.20922074  0.92558274  0.71914620    -0.34000
N596        N  0.23475754  0.91705029  0.70916286    -0.28200
C597        C  0.25245823  0.94008934  0.68824298    -0.04300
C598        C  0.23712836  0.96396322  0.68451319     0.07900
C599        C  0.20960627  0.95403116  0.70433657     0.01700
H600        H  0.27507190  0.93957724  0.67664172     0.09300
H601        H  0.19224645  0.96737038  0.70826368     0.08400
N602        N  0.25597118  0.83400809  0.74063490    -0.35400
N603        N  0.23823049  0.81603522  0.76270740    -0.27600
C604        C  0.25029547  0.79122991  0.76969848    -0.02800
C605        C  0.27684987  0.79395073  0.75100271     0.05800
C606        C  0.27988407  0.82125791  0.73284821     0.03900
H607        H  0.24064740  0.77287020  0.78710998     0.09000
H608        H  0.29826914  0.83137429  0.71545425     0.07800
C609        C  0.33751572  0.73667067  0.75086293     0.80900
N610        N  0.31797215  0.69674976  0.75221740    -0.77400
C611        C  0.33839867  0.67791048  0.75229750     0.83400
N612        N  0.37831334  0.69894134  0.75101368    -0.77300
C613        C  0.39785201  0.73883398  0.74965332     0.83500
N614        N  0.37747289  0.75773241  0.74957413    -0.79000
N615        N  0.68557659  0.84466478  0.70653588    -0.26600
N616        N  0.72042647  0.87087139  0.71638846    -0.34400
C617        C  0.74868302  0.87017682  0.70197937     0.01800
C618        C  0.73036940  0.84175333  0.68260453     0.07800
C619        C  0.69058320  0.82633706  0.68613007    -0.05300
H620        H  0.77995889  0.88780539  0.70597722     0.08500
H621        H  0.66678595  0.80300569  0.67485222     0.09700
Cu622      Cu  0.72717414  0.90361880  0.75030022     0.44200
Cu623      Cu  0.63131594  0.83196011  0.72040363     0.42000
Cu624      Cu  0.63172359  0.88280131  0.77599801     0.43900
N625        N  0.72047810  0.92952845  0.78417188    -0.34000
N626        N  0.68558423  0.92188145  0.79250286    -0.28200
C627        C  0.69026053  0.94401698  0.81362534    -0.04300
C628        C  0.72987760  0.96666972  0.81925289     0.07900
C629        C  0.74846016  0.95679093  0.80027827     0.01700
H630        H  0.66638518  0.94394504  0.82395918     0.09300
H631        H  0.77985047  0.96940764  0.79780129     0.08400
N632        N  0.57983219  0.84152439  0.75826676    -0.35400
N633        N  0.57957402  0.82206403  0.73714823    -0.27600
C634        C  0.54204415  0.79670339  0.72998968    -0.02800
C635        C  0.51781831  0.80071659  0.74757673     0.05800
C636        C  0.54253075  0.82925222  0.76527296     0.03900
H637        H  0.53316851  0.77679308  0.71339737     0.09000
H638        H  0.53413156  0.84009465  0.78204310     0.07800
N639        N  0.36343338  0.25941800  0.79505469    -0.26600
N640        N  0.32864791  0.23255949  0.78546401    -0.34400
C641        C  0.30021492  0.23178893  0.80058002     0.01800
C642        C  0.31830801  0.25986835  0.82020774     0.07800
C643        C  0.35817943  0.27667185  0.81600878    -0.05300
H644        H  0.26890248  0.21330918  0.79696373     0.08500
H645        H  0.38186189  0.30020177  0.82723953     0.09700
Cu646      Cu  0.32224651  0.20036210  0.75127603     0.44200
Cu647      Cu  0.41791516  0.27389492  0.78040059     0.42000
Cu648      Cu  0.41800128  0.22346274  0.72476595     0.43900
N649        N  0.32931801  0.17399642  0.71776305    -0.34000
N650        N  0.36433587  0.18240253  0.70915741    -0.28200
C651        C  0.35984121  0.15945667  0.68853887    -0.04300
C652        C  0.32019007  0.13553600  0.68352375     0.07900
C653        C  0.30141727  0.14545094  0.70231728     0.01700
H654        H  0.38387399  0.15992350  0.67811764     0.09300
H655        H  0.26998195  0.13201579  0.70513767     0.08400
N656        N  0.46969983  0.26525368  0.74225747    -0.35400
N657        N  0.46982513  0.28445221  0.76348058    -0.27600
C658        C  0.50730997  0.30945065  0.77089888    -0.02800
C659        C  0.53160380  0.30550173  0.75333921     0.05800
C660        C  0.50700893  0.27735555  0.73541188     0.03900
H661        H  0.51610289  0.32879574  0.78779448     0.09000
H662        H  0.51547149  0.26632204  0.71877862     0.07800
C663        C  0.71021083  0.36286519  0.75162147     0.80900
N664        N  0.73127745  0.40282361  0.75038375    -0.77400
C665        C  0.71237943  0.42319990  0.75046402     0.83400
N666        N  0.67248536  0.40366220  0.75176859    -0.77300
C667        C  0.65145185  0.36374452  0.75300830     0.83500
N668        N  0.67028925  0.34331794  0.75292649    -0.79000
N669        N  0.81799127  0.71086680  0.70717602    -0.26600
N670        N  0.84453659  0.74570354  0.71686488    -0.34400
C671        C  0.84421543  0.77402341  0.70228477     0.01800
C672        C  0.81569302  0.75576413  0.68296172     0.07800
C673        C  0.79982247  0.71594771  0.68670401    -0.05300
H674        H  0.86220158  0.80532209  0.70611214     0.08500
H675        H  0.77632554  0.69218416  0.67550453     0.09700
Cu676      Cu  0.87734717  0.75237817  0.75071732     0.44200
Cu677      Cu  0.80484433  0.65654462  0.72119111     0.42000
Cu678      Cu  0.85669513  0.65700342  0.77626788     0.43900
N679        N  0.90337414  0.74568720  0.78451431    -0.34000
N680        N  0.89579483  0.71079826  0.79280843    -0.28200
C681        C  0.91802063  0.71547715  0.81388340    -0.04300
C682        C  0.94066611  0.75509312  0.81950761     0.07900
C683        C  0.93068248  0.77366935  0.80059016     0.01700
H684        H  0.91802488  0.69159427  0.82418599     0.09300
H685        H  0.94326733  0.80505585  0.79812323     0.08400
N686        N  0.81522264  0.60513987  0.75864562    -0.35400
N687        N  0.79535296  0.60484505  0.73774307    -0.27600
C688        C  0.76991528  0.56730450  0.73065269    -0.02800
C689        C  0.77430515  0.54312237  0.74806769     0.05800
C690        C  0.80313837  0.56785962  0.76558521     0.03900
H691        H  0.74967411  0.55839419  0.71424509     0.09000
H692        H  0.81427644  0.55949258  0.78221156     0.07800
N693        N  0.15542392  0.83781967  0.96016529    -0.26600
N694        N  0.14778759  0.86426383  0.96964727    -0.34400
C695        C  0.12016154  0.86474976  0.95440291     0.01800
C696        C  0.10980310  0.83689095  0.93475672     0.07800
C697        C  0.13262670  0.82046693  0.93907894    -0.05300
H698        H  0.10756872  0.88288048  0.95795600     0.08500
H699        H  0.13242125  0.79718761  0.92783670     0.09700
Cu700      Cu  0.17348482  0.89609602  0.50390841     0.44200
Cu701      Cu  0.19540526  0.82428773  0.97546266     0.42000
Cu702      Cu  0.24297000  0.87163107  0.53381016     0.43900
N703        N  0.20577891  0.92191442  0.53800141    -0.34000
N704        N  0.23129579  0.91332696  0.54796790    -0.28200
C705        C  0.24962230  0.93691427  0.56855382    -0.04300
C706        C  0.23475768  0.96122539  0.57204745     0.07900
C707        C  0.20682677  0.95095243  0.55247480     0.01700
H708        H  0.27252697  0.93665854  0.57996847     0.09300
H709        H  0.18978624  0.96459225  0.54838367     0.08400
N710        N  0.25369833  0.83161069  0.51561882    -0.35400
N711        N  0.23599542  0.81393637  0.99346789    -0.27600
C712        C  0.24895287  0.79010410  0.98585136    -0.02800
C713        C  0.27605479  0.79313579  0.50420899     0.05800
C714        C  0.27847348  0.81962036  0.52282739     0.03900
H715        H  0.23942451  0.77207857  0.96829212     0.09000
H716        H  0.29691756  0.82959380  0.54019528     0.07800
C717        C  0.33671519  0.73580732  0.50325771     0.80900
N718        N  0.37667450  0.75642576  0.50454902    -0.77400
C719        C  0.39662059  0.73708491  0.50431013     0.83400
N720        N  0.37664846  0.69718867  0.50277401    -0.77300
C721        C  0.33673089  0.67659936  0.50145573     0.83500
N722        N  0.31674524  0.69588761  0.50170257    -0.79000
N723        N  0.68443202  0.84142883  0.54606224    -0.26600
N724        N  0.71922279  0.86797830  0.53631948    -0.34400
C725        C  0.74761818  0.86815401  0.55110703     0.01800
C726        C  0.72946073  0.83995332  0.57064193     0.07800
C727        C  0.68961159  0.82374472  0.56679376    -0.05300
H728        H  0.77891128  0.88624368  0.54728551     0.08500
H729        H  0.66590356  0.80033085  0.57808467     0.09700
Cu730      Cu  0.72563917  0.90014290  0.50217655     0.44200
Cu731      Cu  0.63013793  0.82785911  0.53174816     0.42000
Cu732      Cu  0.63022661  0.87919784  0.97634094     0.43900
N733        N  0.71895468  0.92613811  0.96836371    -0.34000
N734        N  0.68409112  0.91844209  0.95992544    -0.28200
C735        C  0.68889573  0.94097067  0.93898942    -0.04300
C736        C  0.72856955  0.96393486  0.93362698     0.07900
C737        C  0.74703992  0.95382792  0.95253739     0.01700
H738        H  0.66507917  0.94110004  0.92869125     0.09300
H739        H  0.77842636  0.96670438  0.95524552     0.08400
N740        N  0.57851112  0.83804572  0.99432429    -0.35400
N741        N  0.57838995  0.81842488  0.51532435    -0.27600
C742        C  0.54092656  0.79340132  0.52277567    -0.02800
C743        C  0.51659520  0.79777572  0.50549933     0.05800
C744        C  0.54117501  0.82618931  0.98768318     0.03900
H745        H  0.53216571  0.77351805  0.53938419     0.09000
H746        H  0.53266197  0.83727716  0.97110365     0.07800
O747        O  0.72489297  0.00881690  0.84932356    -0.72200
O748        O  0.76374393  0.09016099  0.90520776    -0.73200
O749        O  0.76465608  0.09171695  0.85037994    -0.61800
O750        O  0.72407500  0.00729244  0.90434551    -0.70200
O751        O  0.78099648  0.00912446  0.90529364    -0.69800
O752        O  0.82213845  0.09466771  0.84961253    -0.61100
O753        O  0.82122963  0.09314146  0.90628497    -0.73600
O754        O  0.78178826  0.01060233  0.84847455    -0.72300
Cu755      Cu  0.74251488  0.04935011  0.87730914     1.04600
Cu756      Cu  0.80375616  0.05196907  0.87741621     1.04300
C757        C  0.74668888  0.99684191  0.83992534     0.94000
C758        C  0.79835908  0.10467379  0.91456855     0.93100
C759        C  0.79959378  0.10668089  0.84148637     0.85200
C760        C  0.74568132  0.99492380  0.91351123     0.91500
O761        O  0.78234123  0.84904399  0.59839408    -0.72200
O762        O  0.82419246  0.80830942  0.65508642    -0.73200
O763        O  0.82361738  0.80762488  0.59851294    -0.61800
O764        O  0.78291395  0.84980299  0.65495199    -0.70200
O765        O  0.72603942  0.79261431  0.65445371    -0.69800
O766        O  0.76634090  0.75088003  0.59975200    -0.61100
O767        O  0.76685767  0.75158436  0.65460450    -0.73600
O768        O  0.72553518  0.79182472  0.59960844    -0.72300
Cu769      Cu  0.80544757  0.83086856  0.62673346     1.04600
Cu770      Cu  0.74437389  0.76990209  0.62712990     1.04300
C771        C  0.74694374  0.82653519  0.59036149     0.94000
C772        C  0.80181095  0.77306767  0.66343771     0.93100
C773        C  0.80106626  0.77222262  0.59051207     0.85200
C774        C  0.74760971  0.82759071  0.66323519     0.91500
O775        O  0.26799233  0.09024831  0.65528949    -0.72200
O776        O  0.22652673  0.00516834  0.59962360    -0.73200
O777        O  0.22756775  0.00643087  0.65615515    -0.61800
O778        O  0.26716472  0.08900788  0.59857088    -0.70200
O779        O  0.32399077  0.09062243  0.59924942    -0.69800
O780        O  0.28495719  0.00918050  0.65514814    -0.61100
O781        O  0.28380290  0.00765805  0.60030328    -0.73600
O782        O  0.32497046  0.09217521  0.65432210    -0.72300
Cu783      Cu  0.24514845  0.04764483  0.62741594     1.04600
Cu784      Cu  0.30630627  0.05004749  0.62724549     1.04300
C785        C  0.30329735  0.10447571  0.66349128     0.94000
C786        C  0.24884757  0.99293947  0.59147168     0.93100
C787        C  0.25030772  0.99475968  0.66444317     0.85200
C788        C  0.30219921  0.10267829  0.58994955     0.91500
O789        O  0.06597871  0.79022323  0.85032010    -0.72200
O790        O  0.98176043  0.74950285  0.90447350    -0.73200
O791        O  0.98303774  0.75022929  0.84945733    -0.61800
O792        O  0.06467441  0.78937344  0.90519796    -0.70200
O793        O  0.06751664  0.84679079  0.90626604    -0.69800
O794        O  0.98469428  0.80706427  0.84862833    -0.61100
O795        O  0.98348561  0.80637303  0.90541720    -0.73600
O796        O  0.06876847  0.84762707  0.84956886    -0.72300
Cu797      Cu  0.02372792  0.76800597  0.87735714     1.04600
Cu798      Cu  0.02619878  0.82917402  0.87747041     1.04300
C799        C  0.08081552  0.82513835  0.84139351     0.94000
C800        C  0.96935353  0.77107141  0.91364446     0.93100
C801        C  0.97094453  0.77195796  0.84010539     0.85200
C802        C  0.07914249  0.82398936  0.91454873     0.91500
O803        O  0.28138156  0.34839051  0.84955386    -0.72200
O804        O  0.32163325  0.30708072  0.90451741    -0.73200
O805        O  0.32216178  0.30753986  0.84958456    -0.61800
O806        O  0.28080613  0.34785446  0.90450437    -0.70200
O807        O  0.22349474  0.29114079  0.90514576    -0.69800
O808        O  0.26543235  0.25028253  0.84833833    -0.61100
O809        O  0.26492281  0.24976428  0.90516260    -0.73600
O810        O  0.22406967  0.29172099  0.84830214    -0.72300
Cu811      Cu  0.30326108  0.32948617  0.87705719     1.04600
Cu812      Cu  0.24225743  0.26850818  0.87673258     1.04300
C813        C  0.24675648  0.32706728  0.84017526     0.94000
C814        C  0.30015182  0.27224960  0.91353971     0.93100
C815        C  0.30079342  0.27290177  0.84023059     0.85200
C816        C  0.24597944  0.32635470  0.91353704     0.91500
C817        C  0.43883763  0.75876154  0.50525490    -0.12600
C818        C  0.47432498  0.77660943  0.50563538    -0.14100
C819        C  0.31554251  0.75616513  0.50361808    -0.12600
C820        C  0.29756003  0.77307008  0.50390148    -0.14100
C821        C  0.73448166  0.46538569  0.74919003    -0.12600
C822        C  0.75267497  0.50085728  0.74841010    -0.14100
C823        C  0.57382530  0.32606035  0.75372085    -0.12600
C824        C  0.60927564  0.34316382  0.75362672    -0.14100
C825        C  0.47553942  0.77912002  0.74783163    -0.12600
C826        C  0.44005601  0.76094426  0.74849484    -0.14100
C827        C  0.29791927  0.77346120  0.75085428    -0.12600
C828        C  0.31593141  0.75659536  0.75080973    -0.14100
C829        C  0.73274099  0.46419262  0.50467269    -0.12600
C830        C  0.75067361  0.49967041  0.50524969    -0.14100
C831        C  0.74675328  0.32278348  0.50332711    -0.12600
C832        C  0.72987672  0.34078732  0.50293015    -0.14100
C833        C  0.74693399  0.32321918  0.75119791    -0.12600
C834        C  0.73011119  0.34126767  0.75135344    -0.14100
C835        C  0.31567855  0.63441586  0.50030041    -0.12600
C836        C  0.29809345  0.59894659  0.49975746    -0.14100
C837        C  0.57280274  0.32370856  0.49946834    -0.12600
C838        C  0.60826662  0.34119166  0.49988945    -0.14100
C839        C  0.31782550  0.63573669  0.75308262    -0.12600
C840        C  0.30071496  0.60028513  0.75329500    -0.14100
loop_ 
_geom_bond_atom_site_label_1 
_geom_bond_atom_site_label_2 
_geom_bond_distance 
_geom_bond_site_symmetry_2 
_ccdc_geom_bond_type 
N1            N2   1.324       .  A
N1            C5   1.339       .  A
N1           Cu9   2.066       .  S
N2            C3   1.352       .  A
N2           Cu8   2.092       .  S
C3            C4   1.387       .  A
C3            H6   1.082       .  S
C4            C5   1.378       .  A
C4          C393   1.469       .  S
C5            H7   1.082       .  S
Cu8          N11   2.092       .  S
Cu9          N19   2.064       .  S
Cu10         N12   2.055       .  S
Cu10         N18   2.055       .  S
N11          N12   1.323       .  A
N11          C15   1.351       .  A
N12          C13   1.338       .  A
C13          C14   1.376       .  A
C13          H16   1.082       .  S
C14          C15   1.387       .  A
C14         C161   1.466       .  S
C15          H17   1.082       .  S
N18          N19   1.319       .  A
N18          C22   1.343       .  A
N19          C20   1.345       .  A
C20          C21   1.380       .  A
C20          H23   1.082       .  S
C21          C22   1.378       .  A
C21         C420   1.433       .  S
C22          H24   1.082       .  S
N25          N26   1.324       .  A
N25          C29   1.339       .  A
N25         Cu33   2.065       .  S
N26          C27   1.351       .  A
N26        Cu452   2.091       .  S
C27          C28   1.386       .  A
C27          H30   1.082       .  S
C28          C29   1.378       .  A
C28         C394   1.468       .  S
C29          H31   1.082       .  S
Cu32         N35   2.091       .  S
Cu32        N446   2.091   1_554  S
Cu33         N43   2.063       .  S
Cu34         N36   2.056       .  S
Cu34         N42   2.056       .  S
N35          N36   1.323       .  A
N35          C39   1.352       .  A
N36          C37   1.337       .  A
C37          C38   1.376       .  A
C37          H40   1.082       .  S
C38          C39   1.387       .  A
C38         C368   1.466       .  S
C39          H41   1.082       .  S
N42         N463   1.319   1_554  A
N42          C46   1.344       .  A
N43         N462   1.319       .  A
N43          C44   1.345       .  A
C44         C465   1.380       .  A
C44          H47   1.082       .  S
C45          C46   1.379   1_556  A
C45         C464   1.380       .  A
C45         C417   1.434       .  S
C46          H48   1.082       .  S
N49          N50   1.324       .  A
N49          C53   1.339       .  A
N49         Cu57   2.065       .  S
N50          C51   1.352       .  A
N50        Cu476   2.092       .  S
C51          C52   1.387       .  A
C51          H54   1.082       .  S
C52          C53   1.377       .  A
C52         C396   1.468       .  S
C53          H55   1.082       .  S
Cu56         N59   2.092       .  S
Cu56        N470   2.092   1_554  S
Cu57         N67   2.063       .  S
Cu58         N60   2.057       .  S
Cu58         N66   2.056       .  S
N59          N60   1.323       .  A
N59          C63   1.352       .  A
N60          C61   1.338       .  A
C61          C62   1.376       .  A
C61          H64   1.082       .  S
C62          C63   1.387       .  A
C62         C164   1.466       .  S
C63          H65   1.082       .  S
N66         N487   1.319   1_554  A
N66          C70   1.344       .  A
N67         N486   1.319       .  A
N67          C68   1.345       .  A
C68         C489   1.380       .  A
C68          H71   1.082       .  S
C69          C70   1.379   1_556  A
C69         C488   1.380       .  A
C69         C416   1.434       .  S
C70          H72   1.082       .  S
N73          N74   1.324       .  A
N73          C77   1.340       .  A
N73         Cu81   2.069       .  S
N74          C75   1.349       .  A
N74         Cu80   2.081       .  S
C75          C76   1.384       .  A
C75          H78   1.082       .  S
C76          C77   1.379       .  A
C76         C339   1.466       .  S
C77          H79   1.082       .  S
Cu80         N83   2.081       .  S
Cu81         N91   2.067       .  S
Cu82         N84   2.063       .  S
Cu82         N90   2.061       .  S
N83          N84   1.324       .  A
N83          C87   1.349       .  A
N84          C85   1.339       .  A
C85          C86   1.377       .  A
C85          H88   1.082       .  S
C86          C87   1.384       .  A
C86         C163   1.464       .  S
C87          H89   1.082       .  S
N90          N91   1.320       .  A
N90          C94   1.345       .  A
N91          C92   1.345       .  A
C92          C93   1.380       .  A
C92          H95   1.082       .  S
C93          C94   1.379       .  A
C93         C413   1.435       .  S
C94          H96   1.082       .  S
N97          N98   1.324       .  A
N97         C101   1.340       .  A
N97        Cu105   2.069       .  S
N98          C99   1.350       .  A
N98        Cu524   2.081       .  S
C99         C100   1.384       .  A
C99         H102   1.082       .  S
C100        C101   1.379       .  A
C100        C338   1.466       .  S
C101        H103   1.082       .  S
Cu104       N107   2.081       .  S
Cu104       N518   2.081   1_554  S
Cu105       N115   2.068       .  S
Cu106       N108   2.063       .  S
Cu106       N114   2.062       .  S
N107        N108   1.324       .  A
N107        C111   1.349       .  A
N108        C109   1.339       .  A
C109        C110   1.377       .  A
C109        H112   1.082       .  S
C110        C111   1.384       .  A
C110        C162   1.463       .  S
C111        H113   1.082       .  S
N114        N535   1.320   1_554  A
N114        C118   1.345       .  A
N115        N534   1.320       .  A
N115        C116   1.345       .  A
C116        C537   1.380       .  A
C116        H119   1.082       .  S
C117        C118   1.380       .  A
C117        C536   1.380   1_554  A
C117        C411   1.436       .  S
C118        H120   1.082       .  S
C121        N122   1.357       .  A
C121        N126   1.357       .  A
C121        C412   1.434       .  S
N122        C123   1.357       .  A
C123        N124   1.356       .  A
C123        C409   1.433       .  S
N124        C125   1.356       .  A
C125        N126   1.357       .  A
C125        C418   1.432   1_554  S
N127        N128   1.324       .  A
N127        C131   1.339       .  A
N127       Cu135   2.062       .  S
N128        C129   1.351       .  A
N128       Cu554   2.089       .  S
C129        C130   1.386       .  A
C129        H132   1.082       .  S
C130        C131   1.377       .  A
C130        C353   1.466       .  S
C131        H133   1.082       .  S
Cu134       N137   2.090       .  S
Cu134       N548   2.089       .  S
Cu135       N145   2.062       .  S
Cu136       N138   2.058       .  S
Cu136       N144   2.058       .  S
N137        N138   1.323       .  A
N137        C141   1.351       .  A
N138        C139   1.338       .  A
C139        C140   1.377       .  A
C139        H142   1.082       .  S
C140        C141   1.387       .  A
C140        C380   1.467       .  S
C141        H143   1.082       .  S
N144        N565   1.319       .  A
N144        C148   1.344       .  A
N145        N564   1.319   1_554  A
N145        C146   1.345       .  A
C146        C147   1.380       .  A
C146        H149   1.082       .  S
C147        C568   1.379   1_554  A
C147        C410   1.434       .  S
C148        C567   1.379       .  A
C148        H150   1.082       .  S
O151       Cu159   1.989       .  S
O151        C161   1.276       .  A
O152       Cu159   1.986   1_655  S
O152        C162   1.275       .  A
O153       Cu159   1.983   1_655  S
O153        C163   1.275       .  A
O154       Cu159   1.984       .  S
O154        C164   1.275       .  A
O155       Cu160   2.029       .  S
O155        C164   1.279       .  A
O156       Cu160   2.027   1_655  S
O156        C163   1.279       .  A
O157       Cu160   2.022   1_655  S
O157        C162   1.278       .  A
O158       Cu160   2.023       .  S
O158        C161   1.278       .  A
Cu159      Cu160   2.377       .  S
N165        N166   1.324       .  A
N165        C169   1.340       .  A
N165       Cu173   2.069       .  S
N166        C167   1.350       .  A
N166       Cu172   2.082       .  S
C167        C168   1.384       .  A
C167        H170   1.082       .  S
C168        C169   1.379       .  A
C168        C379   1.466       .  S
C169        H171   1.082       .  S
Cu172       N175   2.082       .  S
Cu173       N183   2.067       .  S
Cu174       N176   2.063       .  S
Cu174       N182   2.061       .  S
N175        N176   1.324       .  A
N175        C179   1.349       .  A
N176        C177   1.339       .  A
C177        C178   1.377       .  A
C177        H180   1.082       .  S
C178        C179   1.384       .  A
C178        C367   1.464       .  S
C179        H181   1.082       .  S
N182        N183   1.320       .  A
N182        C186   1.345       .  A
N183        C184   1.345       .  A
C184        C185   1.380       .  A
C184        H187   1.082       .  S
C185        C186   1.379       .  A
C185        C407   1.436       .  S
C186        H188   1.082       .  S
C189        N190   1.357       .  A
C189        N194   1.357       .  A
C189        C408   1.434       .  S
N190        C191   1.357       .  A
C191        N192   1.356       .  A
C191        C419   1.432       .  S
N192        C193   1.356       .  A
C193        N194   1.357       .  A
C193        C406   1.433       .  S
N195        N196   1.324       .  A
N195        C199   1.339       .  A
N195       Cu203   2.063       .  S
N196        C197   1.351       .  A
N196       Cu202   2.090       .  S
C197        C198   1.386       .  A
C197        H200   1.082       .  S
C198        C199   1.377       .  A
C198        C354   1.466       .  S
C199        H201   1.082       .  S
Cu202       N205   2.091       .  S
Cu203       N213   2.063       .  S
Cu204       N206   2.059       .  S
Cu204       N212   2.059       .  S
N205        N206   1.323       .  A
N205        C209   1.352       .  A
N206        C207   1.338       .  A
C207        C208   1.377       .  A
C207        H210   1.081       .  S
C208        C209   1.388       .  A
C208        C337   1.468       .  S
C209        H211   1.082       .  S
N212        N213   1.319       .  A
N212        C216   1.344       .  A
N213        C214   1.345       .  A
C214        C215   1.380       .  A
C214        H217   1.082       .  S
C215        C216   1.379       .  A
C215        C405   1.434       .  S
C216        H218   1.082       .  S
N219        N220   1.324       .  A
N219        C223   1.339       .  A
N219       Cu227   2.066       .  S
N220        C221   1.352       .  A
N220       Cu226   2.093       .  S
C221        C222   1.387       .  A
C221        H224   1.082       .  S
C222        C223   1.378       .  A
C222        C395   1.469       .  S
C223        H225   1.082       .  S
Cu226       N229   2.092       .  S
Cu227       N237   2.064       .  S
Cu228       N230   2.055       .  S
Cu228       N236   2.055       .  S
N229        N230   1.323       .  A
N229        C233   1.351       .  A
N230        C231   1.338       .  A
C231        C232   1.376       .  A
C231        H234   1.082       .  S
C232        C233   1.387       .  A
C232        C365   1.466       .  S
C233        H235   1.082       .  S
N236        N237   1.319       .  A
N236        C240   1.343       .  A
N237        C238   1.345       .  A
C238        C239   1.380       .  A
C238        H241   1.082       .  S
C239        C240   1.379       .  A
C239        C403   1.433       .  S
C240        H242   1.082       .  S
C243        N244   1.357       .  A
C243        N248   1.357       .  A
C243        C414   1.434       .  S
N244        C245   1.357       .  A
C245        N246   1.356       .  A
C245        C401   1.433       .  S
N246        C247   1.356       .  A
C247        N248   1.357       .  A
C247        C404   1.432       .  S
N249        N250   1.324       .  A
N249        C253   1.339       .  A
N249       Cu257   2.063       .  S
N250        C251   1.351       .  A
N250       Cu256   2.090       .  S
C251        C252   1.386       .  A
C251        H254   1.082       .  S
C252        C253   1.377       .  A
C252        C352   1.466       .  S
C253        H255   1.082       .  S
Cu256       N259   2.090       .  S
Cu257       N267   2.062       .  S
Cu258       N260   2.058       .  S
Cu258       N266   2.058       .  S
N259        N260   1.323       .  A
N259        C263   1.352       .  A
N260        C261   1.338       .  A
C261        C262   1.377       .  A
C261        H264   1.082       .  S
C262        C263   1.387       .  A
C262        C381   1.467       .  S
C263        H265   1.082       .  S
N266        N267   1.319       .  A
N266        C270   1.344       .  A
N267        C268   1.345       .  A
C268        C269   1.380       .  A
C268        H271   1.082       .  S
C269        C270   1.379       .  A
C269        C402   1.434       .  S
C270        H272   1.082       .  S
N273        N274   1.324       .  A
N273        C277   1.340       .  A
N273       Cu281   2.070       .  S
N274        C275   1.350       .  A
N274       Cu700   2.082       .  S
C275        C276   1.384       .  A
C275        H278   1.082       .  S
C276        C277   1.379       .  A
C276        C382   1.467       .  S
C277        H279   1.082       .  S
Cu280       N283   2.082       .  S
Cu280       N694   2.082   1_554  S
Cu281       N291   2.069       .  S
Cu282       N284   2.064       .  S
Cu282       N290   2.062       .  S
N283        N284   1.324       .  A
N283        C287   1.349       .  A
N284        C285   1.339       .  A
C285        C286   1.377       .  A
C285        H288   1.082       .  S
C286        C287   1.384       .  A
C286        C366   1.463       .  S
C287        H289   1.082       .  S
N290        N711   1.320   1_554  A
N290        C294   1.345       .  A
N291        N710   1.320       .  A
N291        C292   1.345       .  A
C292        C713   1.381       .  A
C292        H295   1.082       .  S
C293        C294   1.380       .  A
C293        C712   1.381   1_554  A
C293        C400   1.436       .  S
C294        H296   1.082       .  S
C297        N298   1.357       .  A
C297        N302   1.357       .  A
C297        C399   1.435       .  S
N298        C299   1.357       .  A
C299        N300   1.356       .  A
C299        C397   1.433       .  S
N300        C301   1.356       .  A
C301        N302   1.357       .  A
C301        C415   1.433       .  S
N303        N304   1.324       .  A
N303        C307   1.339       .  A
N303       Cu311   2.063       .  S
N304        C305   1.351       .  A
N304       Cu310   2.089       .  S
C305        C306   1.386       .  A
C305        H308   1.082       .  S
C306        C307   1.377       .  A
C306        C351   1.466       .  S
C307        H309   1.082       .  S
Cu310       N733   2.090   1_554  S
Cu311       N321   2.062       .  S
Cu312       N314   2.059       .  S
Cu312       N320   2.059       .  S
N313        N314   1.323       .  A
N313        C317   1.351       .  A
N313       Cu730   2.090       .  S
N314        C315   1.338       .  A
C315        C316   1.377       .  A
C315        H318   1.082       .  S
C316        C317   1.387       .  A
C316        C340   1.467       .  S
C317        H319   1.082       .  S
N320        N741   1.319       .  A
N320        C324   1.344       .  A
N321        N740   1.319   1_554  A
N321        C322   1.345       .  A
C322        C323   1.380       .  A
C322        H325   1.082       .  S
C323        C744   1.379   1_554  A
C323        C398   1.434       .  S
C324        C743   1.379       .  A
C324        H326   1.082       .  S
O327       Cu335   1.983       .  S
O327        C337   1.275   1_545  A
O328       Cu335   1.982       .  S
O328        C338   1.274       .  A
O329       Cu335   1.984       .  S
O329        C339   1.275       .  A
O330       Cu335   1.985       .  S
O330        C340   1.275   1_545  A
O331       Cu336   2.030       .  S
O331        C340   1.279   1_545  A
O332       Cu336   2.029       .  S
O332        C339   1.280       .  A
O333       Cu336   2.032       .  S
O333        C338   1.280       .  A
O334       Cu336   2.033       .  S
O334        C337   1.280   1_545  A
Cu335      Cu336   2.376       .  S
O341       Cu349   2.029       .  S
O341        C351   1.279       .  A
O342       Cu349   2.029       .  S
O342        C352   1.279       .  A
O343       Cu349   2.028       .  S
O343        C353   1.279       .  A
O344       Cu349   2.028       .  S
O344        C354   1.279       .  A
O345       Cu350   1.987       .  S
O345        C354   1.275       .  A
O346       Cu350   1.986       .  S
O346        C353   1.275       .  A
O347       Cu350   1.985       .  S
O347        C352   1.275       .  A
O348       Cu350   1.985       .  S
O348        C351   1.275       .  A
Cu349      Cu350   2.376       .  S
O355       Cu363   2.024       .  S
O355        C365   1.278       .  A
O356       Cu363   2.023       .  S
O356        C366   1.279   1_545  A
O357       Cu363   2.027       .  S
O357        C367   1.279   1_545  A
O358       Cu363   2.029       .  S
O358        C368   1.279       .  A
O359       Cu364   1.984       .  S
O359        C368   1.275       .  A
O360       Cu364   1.983       .  S
O360        C367   1.275   1_545  A
O361       Cu364   1.986       .  S
O361        C366   1.275   1_545  A
O362       Cu364   1.988       .  S
O362        C365   1.276       .  A
Cu363      Cu364   2.377       .  S
O369       Cu377   1.986       .  S
O369        C379   1.275       .  A
O370       Cu377   1.986   1_655  S
O370        C380   1.275       .  A
O371       Cu377   1.983   1_655  S
O371        C381   1.275       .  A
O372       Cu377   1.983       .  S
O372        C382   1.274       .  A
O373       Cu378   2.032       .  S
O373        C382   1.280       .  A
O374       Cu378   2.033   1_655  S
O374        C381   1.280       .  A
O375       Cu378   2.029   1_655  S
O375        C380   1.279       .  A
O376       Cu378   2.029       .  S
O376        C379   1.280       .  A
Cu377      Cu378   2.376       .  S
O383       Cu391   1.985       .  S
O383        C393   1.275       .  A
O384       Cu391   1.984       .  S
O384        C394   1.275       .  A
O385       Cu391   1.986       .  S
O385        C395   1.275       .  A
O386       Cu391   1.985       .  S
O386        C396   1.275       .  A
O387       Cu392   2.034       .  S
O387        C396   1.280       .  A
O388       Cu392   2.034       .  S
O388        C395   1.280       .  A
O389       Cu392   2.034       .  S
O389        C394   1.280       .  A
O390       Cu392   2.035       .  S
O390        C393   1.280       .  A
Cu391      Cu392   2.375       .  S
C397        C398   1.204       .  T
C399        C400   1.205       .  T
C401        C402   1.204       .  T
C403        C404   1.204       .  T
C405        C406   1.204       .  T
C407        C408   1.205       .  T
C409        C410   1.204       .  T
C411        C412   1.205       .  T
C413        C414   1.205       .  T
C415        C416   1.204   1_554  T
C417        C418   1.204       .  T
C419        C420   1.204       .  T
N421        N422   1.324       .  A
N421        C425   1.339       .  A
N421       Cu429   2.066       .  S
N422        C423   1.352       .  A
N422       Cu428   2.092       .  S
C423        C424   1.387       .  A
C423        H426   1.082       .  S
C424        C425   1.378       .  A
C424        C813   1.469       .  S
C425        H427   1.082       .  S
Cu428       N431   2.092       .  S
Cu429       N439   2.064       .  S
Cu430       N432   2.055       .  S
Cu430       N438   2.055       .  S
N431        N432   1.323       .  A
N431        C435   1.351       .  A
N432        C433   1.338       .  A
C433        C434   1.376       .  A
C433        H436   1.082       .  S
C434        C435   1.387       .  A
C434        C581   1.466       .  S
C435        H437   1.082       .  S
N438        N439   1.319       .  A
N438        C442   1.343       .  A
N439        C440   1.345       .  A
C440        C441   1.380       .  A
C440        H443   1.082       .  S
C441        C442   1.378       .  A
C441        C840   1.433       .  S
C442        H444   1.082       .  S
N445        N446   1.324       .  A
N445        C449   1.339       .  A
N445       Cu453   2.065       .  S
N446        C447   1.351       .  A
C447        C448   1.386       .  A
C447        H450   1.082       .  S
C448        C449   1.378       .  A
C448        C814   1.468       .  S
C449        H451   1.082       .  S
Cu452       N455   2.091       .  S
Cu453       N463   2.063       .  S
Cu454       N456   2.056       .  S
Cu454       N462   2.056       .  S
N455        N456   1.323       .  A
N455        C459   1.352       .  A
N456        C457   1.337       .  A
C457        C458   1.376       .  A
C457        H460   1.082       .  S
C458        C459   1.387       .  A
C458        C788   1.466       .  S
C459        H461   1.082       .  S
N462        C466   1.344       .  A
N463        C464   1.345       .  A
C464        H467   1.082       .  S
C465        C466   1.379       .  A
C465        C837   1.434       .  S
C466        H468   1.082       .  S
N469        N470   1.324       .  A
N469        C473   1.339       .  A
N469       Cu477   2.065       .  S
N470        C471   1.352       .  A
C471        C472   1.387       .  A
C471        H474   1.082       .  S
C472        C473   1.377       .  A
C472        C816   1.468       .  S
C473        H475   1.082       .  S
Cu476       N479   2.092       .  S
Cu477       N487   2.063       .  S
Cu478       N480   2.057       .  S
Cu478       N486   2.056       .  S
N479        N480   1.323       .  A
N479        C483   1.352       .  A
N480        C481   1.338       .  A
C481        C482   1.376       .  A
C481        H484   1.082       .  S
C482        C483   1.387       .  A
C482        C584   1.466       .  S
C483        H485   1.082       .  S
N486        C490   1.344       .  A
N487        C488   1.345       .  A
C488        H491   1.082       .  S
C489        C490   1.379       .  A
C489        C836   1.434       .  S
C490        H492   1.082       .  S
N493        N494   1.324       .  A
N493        C497   1.340       .  A
N493       Cu501   2.069       .  S
N494        C495   1.349       .  A
N494       Cu500   2.081       .  S
C495        C496   1.384       .  A
C495        H498   1.082       .  S
C496        C497   1.379       .  A
C496        C759   1.466       .  S
C497        H499   1.082       .  S
Cu500       N503   2.081       .  S
Cu501       N511   2.067       .  S
Cu502       N504   2.063       .  S
Cu502       N510   2.061       .  S
N503        N504   1.324       .  A
N503        C507   1.349       .  A
N504        C505   1.339       .  A
C505        C506   1.377       .  A
C505        H508   1.082       .  S
C506        C507   1.384       .  A
C506        C583   1.464       .  S
C507        H509   1.082       .  S
N510        N511   1.320       .  A
N510        C514   1.345       .  A
N511        C512   1.345       .  A
C512        C513   1.380       .  A
C512        H515   1.082       .  S
C513        C514   1.379       .  A
C513        C833   1.435       .  S
C514        H516   1.082       .  S
N517        N518   1.324       .  A
N517        C521   1.340       .  A
N517       Cu525   2.069       .  S
N518        C519   1.350       .  A
C519        C520   1.384       .  A
C519        H522   1.082       .  S
C520        C521   1.379       .  A
C520        C758   1.466       .  S
C521        H523   1.082       .  S
Cu524       N527   2.081       .  S
Cu525       N535   2.068       .  S
Cu526       N528   2.063       .  S
Cu526       N534   2.062       .  S
N527        N528   1.324       .  A
N527        C531   1.349       .  A
N528        C529   1.339       .  A
C529        C530   1.377       .  A
C529        H532   1.082       .  S
C530        C531   1.384       .  A
C530        C582   1.463       .  S
C531        H533   1.082       .  S
N534        C538   1.345       .  A
N535        C536   1.345       .  A
C536        H539   1.082       .  S
C537        C538   1.380       .  A
C537        C831   1.436       .  S
C538        H540   1.082       .  S
C541        N542   1.357       .  A
C541        N546   1.357       .  A
C541        C832   1.434       .  S
N542        C543   1.357       .  A
C543        N544   1.356       .  A
C543        C829   1.433       .  S
N544        C545   1.356       .  A
C545        N546   1.357       .  A
C545        C838   1.432       .  S
N547        N548   1.324       .  A
N547        C551   1.339       .  A
N547       Cu555   2.062       .  S
N548        C549   1.351       .  A
C549        C550   1.386       .  A
C549        H552   1.082       .  S
C550        C551   1.377       .  A
C550        C773   1.466       .  S
C551        H553   1.082       .  S
Cu554       N557   2.090   1_554  S
Cu555       N565   2.062       .  S
Cu556       N558   2.058       .  S
Cu556       N564   2.058       .  S
N557        N558   1.323       .  A
N557        C561   1.351       .  A
N558        C559   1.338       .  A
C559        C560   1.377       .  A
C559        H562   1.082       .  S
C560        C561   1.387       .  A
C560        C800   1.467       .  S
C561        H563   1.082       .  S
N564        C568   1.344       .  A
N565        C566   1.345       .  A
C566        C567   1.380       .  A
C566        H569   1.082       .  S
C567        C830   1.434       .  S
C568        H570   1.082       .  S
O571       Cu579   1.989       .  S
O571        C581   1.276       .  A
O572       Cu579   1.986   1_655  S
O572        C582   1.275       .  A
O573       Cu579   1.983   1_655  S
O573        C583   1.275       .  A
O574       Cu579   1.984       .  S
O574        C584   1.275       .  A
O575       Cu580   2.029       .  S
O575        C584   1.279       .  A
O576       Cu580   2.027   1_655  S
O576        C583   1.279       .  A
O577       Cu580   2.022   1_655  S
O577        C582   1.278       .  A
O578       Cu580   2.023       .  S
O578        C581   1.278       .  A
Cu579      Cu580   2.377       .  S
N585        N586   1.324       .  A
N585        C589   1.340       .  A
N585       Cu593   2.069       .  S
N586        C587   1.350       .  A
N586       Cu592   2.082       .  S
C587        C588   1.384       .  A
C587        H590   1.082       .  S
C588        C589   1.379       .  A
C588        C799   1.466       .  S
C589        H591   1.082       .  S
Cu592       N595   2.082       .  S
Cu593       N603   2.067       .  S
Cu594       N596   2.063       .  S
Cu594       N602   2.061       .  S
N595        N596   1.324       .  A
N595        C599   1.349       .  A
N596        C597   1.339       .  A
C597        C598   1.377       .  A
C597        H600   1.082       .  S
C598        C599   1.384       .  A
C598        C787   1.464       .  S
C599        H601   1.082       .  S
N602        N603   1.320       .  A
N602        C606   1.345       .  A
N603        C604   1.345       .  A
C604        C605   1.380       .  A
C604        H607   1.082       .  S
C605        C606   1.379       .  A
C605        C827   1.436       .  S
C606        H608   1.082       .  S
C609        N610   1.357       .  A
C609        N614   1.357       .  A
C609        C828   1.434       .  S
N610        C611   1.357       .  A
C611        N612   1.356       .  A
C611        C839   1.432       .  S
N612        C613   1.356       .  A
C613        N614   1.357       .  A
C613        C826   1.433       .  S
N615        N616   1.324       .  A
N615        C619   1.339       .  A
N615       Cu623   2.063       .  S
N616        C617   1.351       .  A
N616       Cu622   2.090       .  S
C617        C618   1.386       .  A
C617        H620   1.082       .  S
C618        C619   1.377       .  A
C618        C774   1.466       .  S
C619        H621   1.082       .  S
Cu622       N625   2.091       .  S
Cu623       N633   2.063       .  S
Cu624       N626   2.059       .  S
Cu624       N632   2.059       .  S
N625        N626   1.323       .  A
N625        C629   1.352       .  A
N626        C627   1.338       .  A
C627        C628   1.377       .  A
C627        H630   1.081       .  S
C628        C629   1.388       .  A
C628        C757   1.468       .  S
C629        H631   1.082       .  S
N632        N633   1.319       .  A
N632        C636   1.344       .  A
N633        C634   1.345       .  A
C634        C635   1.380       .  A
C634        H637   1.082       .  S
C635        C636   1.379       .  A
C635        C825   1.434       .  S
C636        H638   1.082       .  S
N639        N640   1.324       .  A
N639        C643   1.339       .  A
N639       Cu647   2.066       .  S
N640        C641   1.352       .  A
N640       Cu646   2.093       .  S
C641        C642   1.387       .  A
C641        H644   1.082       .  S
C642        C643   1.378       .  A
C642        C815   1.469       .  S
C643        H645   1.082       .  S
Cu646       N649   2.092       .  S
Cu647       N657   2.064       .  S
Cu648       N650   2.055       .  S
Cu648       N656   2.055       .  S
N649        N650   1.323       .  A
N649        C653   1.351       .  A
N650        C651   1.338       .  A
C651        C652   1.376       .  A
C651        H654   1.082       .  S
C652        C653   1.387       .  A
C652        C785   1.466       .  S
C653        H655   1.082       .  S
N656        N657   1.319       .  A
N656        C660   1.343       .  A
N657        C658   1.345       .  A
C658        C659   1.380       .  A
C658        H661   1.082       .  S
C659        C660   1.379       .  A
C659        C823   1.433       .  S
C660        H662   1.082       .  S
C663        N664   1.357       .  A
C663        N668   1.357       .  A
C663        C834   1.434       .  S
N664        C665   1.357       .  A
C665        N666   1.356       .  A
C665        C821   1.433       .  S
N666        C667   1.356       .  A
C667        N668   1.357       .  A
C667        C824   1.432       .  S
N669        N670   1.324       .  A
N669        C673   1.339       .  A
N669       Cu677   2.063       .  S
N670        C671   1.351       .  A
N670       Cu676   2.090       .  S
C671        C672   1.386       .  A
C671        H674   1.082       .  S
C672        C673   1.377       .  A
C672        C772   1.466       .  S
C673        H675   1.082       .  S
Cu676       N679   2.090       .  S
Cu677       N687   2.062       .  S
Cu678       N680   2.058       .  S
Cu678       N686   2.058       .  S
N679        N680   1.323       .  A
N679        C683   1.352       .  A
N680        C681   1.338       .  A
C681        C682   1.377       .  A
C681        H684   1.082       .  S
C682        C683   1.387       .  A
C682        C801   1.467       .  S
C683        H685   1.082       .  S
N686        N687   1.319       .  A
N686        C690   1.344       .  A
N687        C688   1.345       .  A
C688        C689   1.380       .  A
C688        H691   1.082       .  S
C689        C690   1.379       .  A
C689        C822   1.434       .  S
C690        H692   1.082       .  S
N693        N694   1.324       .  A
N693        C697   1.340       .  A
N693       Cu701   2.070       .  S
N694        C695   1.350       .  A
C695        C696   1.384       .  A
C695        H698   1.082       .  S
C696        C697   1.379       .  A
C696        C802   1.467       .  S
C697        H699   1.082       .  S
Cu700       N703   2.082       .  S
Cu701       N711   2.069       .  S
Cu702       N704   2.064       .  S
Cu702       N710   2.062       .  S
N703        N704   1.324       .  A
N703        C707   1.349       .  A
N704        C705   1.339       .  A
C705        C706   1.377       .  A
C705        H708   1.082       .  S
C706        C707   1.384       .  A
C706        C786   1.463       .  S
C707        H709   1.082       .  S
N710        C714   1.345       .  A
N711        C712   1.345       .  A
C712        H715   1.082       .  S
C713        C714   1.380       .  A
C713        C820   1.436       .  S
C714        H716   1.082       .  S
C717        N718   1.357       .  A
C717        N722   1.357       .  A
C717        C819   1.435       .  S
N718        C719   1.357       .  A
C719        N720   1.356       .  A
C719        C817   1.433       .  S
N720        C721   1.356       .  A
C721        N722   1.357       .  A
C721        C835   1.433       .  S
N723        N724   1.324       .  A
N723        C727   1.339       .  A
N723       Cu731   2.063       .  S
N724        C725   1.351       .  A
N724       Cu730   2.089       .  S
C725        C726   1.386       .  A
C725        H728   1.082       .  S
C726        C727   1.377       .  A
C726        C771   1.466       .  S
C727        H729   1.082       .  S
Cu731       N741   2.062       .  S
Cu732       N734   2.059       .  S
Cu732       N740   2.059       .  S
N733        N734   1.323       .  A
N733        C737   1.351       .  A
N734        C735   1.338       .  A
C735        C736   1.377       .  A
C735        H738   1.082       .  S
C736        C737   1.387       .  A
C736        C760   1.467       .  S
C737        H739   1.082       .  S
N740        C744   1.344       .  A
N741        C742   1.345       .  A
C742        C743   1.380       .  A
C742        H745   1.082       .  S
C743        C818   1.434       .  S
C744        H746   1.082       .  S
O747       Cu755   1.983       .  S
O747        C757   1.275   1_545  A
O748       Cu755   1.982       .  S
O748        C758   1.274       .  A
O749       Cu755   1.984       .  S
O749        C759   1.275       .  A
O750       Cu755   1.985       .  S
O750        C760   1.275   1_545  A
O751       Cu756   2.030       .  S
O751        C760   1.279   1_545  A
O752       Cu756   2.029       .  S
O752        C759   1.280       .  A
O753       Cu756   2.032       .  S
O753        C758   1.280       .  A
O754       Cu756   2.033       .  S
O754        C757   1.280   1_545  A
Cu755      Cu756   2.376       .  S
O761       Cu769   2.029       .  S
O761        C771   1.279       .  A
O762       Cu769   2.029       .  S
O762        C772   1.279       .  A
O763       Cu769   2.028       .  S
O763        C773   1.279       .  A
O764       Cu769   2.028       .  S
O764        C774   1.279       .  A
O765       Cu770   1.987       .  S
O765        C774   1.275       .  A
O766       Cu770   1.986       .  S
O766        C773   1.275       .  A
O767       Cu770   1.985       .  S
O767        C772   1.275       .  A
O768       Cu770   1.985       .  S
O768        C771   1.275       .  A
Cu769      Cu770   2.376       .  S
O775       Cu783   2.024       .  S
O775        C785   1.278       .  A
O776       Cu783   2.023       .  S
O776        C786   1.279   1_545  A
O777       Cu783   2.027       .  S
O777        C787   1.279   1_545  A
O778       Cu783   2.029       .  S
O778        C788   1.279       .  A
O779       Cu784   1.984       .  S
O779        C788   1.275       .  A
O780       Cu784   1.983       .  S
O780        C787   1.275   1_545  A
O781       Cu784   1.986       .  S
O781        C786   1.275   1_545  A
O782       Cu784   1.988       .  S
O782        C785   1.276       .  A
Cu783      Cu784   2.377       .  S
O789       Cu797   1.986       .  S
O789        C799   1.275       .  A
O790       Cu797   1.986   1_655  S
O790        C800   1.275       .  A
O791       Cu797   1.983   1_655  S
O791        C801   1.275       .  A
O792       Cu797   1.983       .  S
O792        C802   1.274       .  A
O793       Cu798   2.032       .  S
O793        C802   1.280       .  A
O794       Cu798   2.033   1_655  S
O794        C801   1.280       .  A
O795       Cu798   2.029   1_655  S
O795        C800   1.279       .  A
O796       Cu798   2.029       .  S
O796        C799   1.280       .  A
Cu797      Cu798   2.376       .  S
O803       Cu811   1.985       .  S
O803        C813   1.275       .  A
O804       Cu811   1.984       .  S
O804        C814   1.275       .  A
O805       Cu811   1.986       .  S
O805        C815   1.275       .  A
O806       Cu811   1.985       .  S
O806        C816   1.275       .  A
O807       Cu812   2.034       .  S
O807        C816   1.280       .  A
O808       Cu812   2.034       .  S
O808        C815   1.280       .  A
O809       Cu812   2.034       .  S
O809        C814   1.280       .  A
O810       Cu812   2.035       .  S
O810        C813   1.280       .  A
Cu811      Cu812   2.375       .  S
C817        C818   1.204       .  T
C819        C820   1.205       .  T
C821        C822   1.204       .  T
C823        C824   1.204       .  T
C825        C826   1.204       .  T
C827        C828   1.205       .  T
C829        C830   1.204       .  T
C831        C832   1.205       .  T
C833        C834   1.205       .  T
C835        C836   1.204       .  T
C837        C838   1.204       .  T
C839        C840   1.204       .  T
