geometry optimzed in LAMMPS
_audit_creation_date              2020-12-01 
_audit_creation_method            'lammps2cif' 
_symmetry_space_group_name_H-M    'P1' 
_symmetry_Int_Tables_number       1 
_symmetry_cell_setting            triclinic 
loop_ 
_symmetry_equiv_pos_as_xyz 
  x,y,z 
_cell_length_a                    48.15757162 
_cell_length_b                    28.978489747825975 
_cell_length_c                    29.193124795854168 
_cell_angle_alpha                 89.87436231882818 
_cell_angle_beta                  90.0631787564263 
_cell_angle_gamma                 90.07090178344856 
loop_ 
_atom_site_label 
_atom_site_type_symbol 
_atom_site_fract_x 
_atom_site_fract_y 
_atom_site_fract_z 
_atom_site_charge 
O1          O  0.60483746  0.57459408  0.12556007    -0.73100
O2          O  0.59966734  0.64879574  0.01097258    -0.74100
O3          O  0.56277667  0.61206549  0.07281079    -0.62700
O4          O  0.64496918  0.61051681  0.06471607    -0.71100
O5          O  0.64297727  0.54480083  0.02566559    -0.70700
O6          O  0.56118909  0.54843869  0.03053808    -0.61900
O7          O  0.59998312  0.58358336  0.97098680    -0.74400
O8          O  0.60103390  0.50948628  0.08585232    -0.73200
Cu9        Cu  0.60351500  0.61387397  0.06984627     1.04600
Cu10       Cu  0.60159265  0.54433624  0.02673476     1.04300
C11         C  0.60133488  0.53095282  0.12392190     0.93100
C12         C  0.59668874  0.62723606  0.97324372     0.92200
C13         C  0.54908841  0.58053602  0.05252320     0.84400
C14         C  0.65696650  0.57661492  0.04513283     0.90700
O15         O  0.38332025  0.50469373  0.09607455    -0.73100
O16         O  0.37675715  0.57958552  0.98024828    -0.74100
O17         O  0.41893854  0.54607592  0.03529922    -0.62700
O18         O  0.33776778  0.53671757  0.03947083    -0.71100
O19         O  0.33522656  0.60239364  0.07845583    -0.70700
O20         O  0.41793942  0.60992902  0.07721938    -0.61900
O21         O  0.37674150  0.64448298  0.02071026    -0.74400
O22         O  0.37928093  0.57034052  0.13462283    -0.73200
Cu23       Cu  0.37888449  0.53944347  0.03631975     1.04600
Cu24       Cu  0.37687771  0.60904351  0.07920097     1.04300
C25         C  0.38431660  0.52715135  0.13366482     0.93100
C26         C  0.37823498  0.62363741  0.98245450     0.92200
C27         C  0.43134070  0.57873745  0.05584502     0.84400
C28         C  0.32351975  0.56798919  0.05901965     0.90700
C29         C  0.38093745  0.66743168  0.85915892     0.86300
C30         C  0.37399101  0.71692978  0.87396454    -0.53900
C31         C  0.38604692  0.73031612  0.91428173     0.09300
C32         C  0.40322405  0.69184299  0.93721028     0.20200
C33         C  0.41277917  0.66523378  0.85987167    -0.54600
C34         C  0.42460595  0.67825895  0.90035415     0.09400
C35         C  0.37177561  0.63744431  0.89991882    -0.54200
C36         C  0.38314475  0.65029610  0.94047454     0.09900
H37         H  0.36209360  0.74040476  0.85255430     0.14400
H38         H  0.41270257  0.70185072  0.97042988     0.00200
H39         H  0.42502694  0.65553066  0.83018073     0.14800
H40         H  0.35755580  0.60861053  0.89844768     0.14500
C41         C  0.39313326  0.49921100  0.25999556     0.86300
C42         C  0.38682237  0.44772693  0.25317103    -0.53900
C43         C  0.39718149  0.42990699  0.21327078     0.09300
C44         C  0.41309218  0.46517821  0.18375349     0.20200
C45         C  0.42499915  0.50218493  0.25607228    -0.54600
C46         C  0.43566722  0.48400129  0.21665538     0.09400
C47         C  0.38232962  0.52266822  0.21694047    -0.54200
C48         C  0.39204319  0.50497254  0.17713824     0.09900
H49         H  0.37562346  0.42698316  0.27810037     0.14400
H50         H  0.42147085  0.45086231  0.15133576     0.00200
H51         H  0.43860772  0.51479421  0.28276378     0.14800
H52         H  0.36789011  0.55148431  0.21799073     0.14500
N53         N  0.32523123  0.63330513  0.60487112    -0.27400
N54         N  0.30448719  0.61103513  0.62445235    -0.35300
C55         C  0.30924388  0.60815784  0.66960918     0.00900
C56         C  0.33443979  0.62930155  0.67886945     0.06900
C57         C  0.34398325  0.64488847  0.63687757    -0.06200
H58         H  0.29468486  0.59368542  0.69387760     0.07600
H59         H  0.36297115  0.66361295  0.62997215     0.08800
Cu60       Cu  0.26937501  0.59038976  0.58971794     0.44200
Cu61       Cu  0.32638916  0.64639775  0.53589330     0.42000
Cu62       Cu  0.26176891  0.63038737  0.47337343     0.43900
N63         N  0.23230619  0.59018393  0.55451731    -0.34800
N64         N  0.22880489  0.60895171  0.51360330    -0.29100
C65         C  0.20151983  0.60953454  0.50365799    -0.05200
C66         C  0.18747682  0.58948328  0.53988291     0.07000
C67         C  0.20755169  0.57744021  0.57135192     0.00800
H68         H  0.19262674  0.62353864  0.47255296     0.08500
H69         H  0.20429210  0.56304395  0.60515654     0.07600
N70         N  0.30074718  0.62903247  0.44364980    -0.36300
N71         N  0.32405082  0.63495967  0.46678874    -0.28500
C72         C  0.34545329  0.62000743  0.44164591    -0.03700
C73         C  0.33531168  0.60341783  0.40052062     0.04900
C74         C  0.30682897  0.61034175  0.40282179     0.03000
H75         H  0.36623034  0.61616811  0.45511593     0.08100
H76         H  0.29131814  0.59854118  0.37872918     0.06900
C77         C  0.38977451  0.99611747  0.87432765     0.86300
C78         C  0.37736395  0.01913497  0.91632287    -0.53900
C79         C  0.38584918  0.00130836  0.95690095     0.09300
C80         C  0.40675692  0.96120076  0.95223048     0.20200
C81         C  0.42151078  0.99912317  0.88160770    -0.54600
C82         C  0.43037407  0.98090020  0.92227581     0.09400
C83         C  0.38327085  0.94457554  0.88008398    -0.54200
C84         C  0.39191283  0.92625899  0.92093037     0.09900
H85         H  0.36358068  0.04876792  0.91400689     0.14400
H86         H  0.41402412  0.94660504  0.98534906     0.00200
H87         H  0.43620376  0.01213157  0.85665988     0.14800
H88         H  0.37319853  0.92413478  0.85369803     0.14500
C89         C  0.38475129  0.17140954  0.26863376     0.86300
C90         C  0.37578712  0.14185641  0.22775126    -0.53900
C91         C  0.38705039  0.15521684  0.18730121     0.09300
C92         C  0.40707140  0.19673987  0.19078270     0.20200
C93         C  0.41662521  0.16923239  0.26806508    -0.54600
C94         C  0.42850002  0.18290530  0.22769832     0.09400
C95         C  0.37779686  0.22096095  0.25415455    -0.54200
C96         C  0.38968649  0.23461541  0.21386942     0.09900
H97         H  0.36196678  0.11250661  0.22904837     0.14400
H98         H  0.41652868  0.20746499  0.15773868     0.00200
H99         H  0.42883633  0.15924687  0.29778263     0.14800
H100        H  0.36611499  0.24435428  0.27584193     0.14500
N101        N  0.32453141  0.13472578  0.51952198    -0.27400
N102        N  0.30185008  0.12124016  0.49787977    -0.35300
C103        C  0.30648296  0.12227882  0.45264400     0.00900
C104        C  0.33349881  0.13681348  0.44552138     0.06900
C105        C  0.34430441  0.14466760  0.48867086    -0.06200
H106        H  0.29105552  0.11391399  0.42701708     0.07600
H107        H  0.36508100  0.15606113  0.49715235     0.08800
Cu108      Cu  0.26537815  0.10328964  0.53004125     0.44200
Cu109      Cu  0.32779730  0.13710766  0.58958704     0.42000
Cu110      Cu  0.26339183  0.12553962  0.65125776     0.43900
N111        N  0.23010334  0.09642200  0.56918261    -0.34800
N112        N  0.22895584  0.10810817  0.61287484    -0.29100
C113        C  0.20272853  0.10352382  0.62767607    -0.05200
C114        C  0.18687766  0.08735806  0.59173473     0.07000
C115        C  0.20474365  0.08321019  0.55512081     0.00800
H116        H  0.19578940  0.11104821  0.66209744     0.08500
H117        H  0.19952404  0.07334988  0.52043254     0.07600
N118        N  0.30202006  0.12177187  0.68168018    -0.36300
N119        N  0.32556710  0.12540143  0.65884913    -0.28500
C120        C  0.34655715  0.11114398  0.68556108    -0.03700
C121        C  0.33573797  0.09750052  0.72732383     0.04900
C122        C  0.30740822  0.10519159  0.72370077     0.03000
H123        H  0.36757151  0.10637435  0.67348257     0.08100
H124        H  0.29153600  0.09576420  0.74818109     0.06900
O125        O  0.64386697  0.10578353  0.06220638    -0.73100
O126        O  0.56208307  0.10857183  0.05131475    -0.74100
O127        O  0.59895512  0.14656593  0.11292892    -0.62700
O128        O  0.60405760  0.06869126  0.00161746    -0.71100
O129        O  0.59941997  0.00446506  0.04264640    -0.70700
O130        O  0.59815588  0.08281095  0.15542676    -0.61900
O131        O  0.55970324  0.04609555  0.09544108    -0.74400
O132        O  0.64107651  0.04135134  0.10353900    -0.73200
Cu133      Cu  0.60270272  0.10967485  0.05560870     1.04600
Cu134      Cu  0.59984678  0.04143377  0.10089636     1.04300
C135        C  0.65537912  0.07283536  0.08413980     0.93100
C136        C  0.54808442  0.07722396  0.07139130     0.92200
C137        C  0.59594651  0.12658464  0.15155194     0.84400
C138        C  0.59981513  0.02524660  0.00406632     0.90700
O139        O  0.37581401  0.06964566  0.99646796    -0.73100
O140        O  0.37946317  0.14873744  0.10710395    -0.74100
O141        O  0.41719207  0.11008668  0.04742675    -0.62700
O142        O  0.33540081  0.10746880  0.05491981    -0.71100
O143        O  0.33741802  0.04302008  0.09638223    -0.70700
O144        O  0.41884807  0.04754432  0.09156484    -0.61900
O145        O  0.37950932  0.08474363  0.14927224    -0.74400
O146        O  0.37962030  0.00547121  0.03785136    -0.73200
Cu147      Cu  0.37656054  0.11122352  0.04996124     1.04600
Cu148      Cu  0.37860295  0.04296016  0.09539607     1.04300
C149        C  0.37963869  0.02612243  0.99925602     0.93100
C150        C  0.38161366  0.12856908  0.14577136     0.92200
C151        C  0.43085909  0.07888004  0.06823053     0.84400
C152        C  0.32351464  0.07471458  0.07659733     0.90700
C153        C  0.58998310  0.99481600  0.87869539     0.86300
C154        C  0.59678792  0.94366135  0.88504515    -0.53900
C155        C  0.58803328  0.92512441  0.92561329     0.09300
C156        C  0.57280087  0.96003512  0.95648515     0.20200
C157        C  0.55825649  0.99738014  0.88535333    -0.54600
C158        C  0.54921990  0.97914361  0.92583844     0.09400
C159        C  0.60192991  0.01872691  0.92071976    -0.54200
C160        C  0.59348896  0.00071456  0.96136558     0.09900
H161        H  0.60656048  0.92334143  0.85832321     0.14400
H162        H  0.56537651  0.94553739  0.98952694     0.00200
H163        H  0.54363149  0.01094916  0.86061643     0.14800
H164        H  0.61548571  0.04867268  0.91835131     0.14500
C165        C  0.59231203  0.17649003  0.27165614     0.86300
C166        C  0.60030129  0.22461828  0.25331292    -0.53900
C167        C  0.58858460  0.23512149  0.21184657     0.09300
C168        C  0.57017191  0.19661603  0.19230450     0.20200
C169        C  0.56039412  0.17758960  0.27187498    -0.54600
C170        C  0.54857255  0.18775640  0.23046626     0.09400
C171        C  0.60019246  0.14311226  0.23361468    -0.54200
C172        C  0.58930283  0.15389585  0.19216190     0.09900
H173        H  0.61227465  0.24975706  0.27248794     0.14400
H174        H  0.56088348  0.20502568  0.15845709     0.00200
H175        H  0.54812489  0.17153224  0.30246790     0.14800
H176        H  0.61401769  0.11393036  0.23883815     0.14500
N177        N  0.65587440  0.07466291  0.50045352    -0.27400
N178        N  0.68001312  0.07630171  0.47905902    -0.35300
C179        C  0.67607880  0.09291201  0.43654978     0.00900
C180        C  0.64806641  0.10170885  0.43118787     0.06900
C181        C  0.63585775  0.08937829  0.47209965    -0.06200
H182        H  0.69245794  0.09917801  0.41196916     0.07600
H183        H  0.61430129  0.09362184  0.48160231     0.08800
Cu184      Cu  0.71726000  0.06166534  0.51054930     0.44200
Cu185      Cu  0.65140200  0.06295241  0.56932790     0.42000
Cu186      Cu  0.71394804  0.08234816  0.63250812     0.43900
N187        N  0.75126009  0.05998478  0.55327076    -0.34800
N188        N  0.75016519  0.07107184  0.59713030    -0.29100
C189        C  0.77596819  0.07160006  0.61440908    -0.05200
C190        C  0.79396306  0.05961467  0.57984120     0.07000
C191        C  0.77779347  0.05220767  0.54156646     0.00800
H192        H  0.78115943  0.07974797  0.64954776     0.08500
H193        H  0.78483476  0.04387155  0.50738851     0.07600
N194        N  0.67551194  0.07670812  0.66250718    -0.36300
N195        N  0.65258674  0.06781181  0.63936941    -0.28500
C196        C  0.63177886  0.05990207  0.66885333    -0.03700
C197        C  0.64221164  0.06368914  0.71284877     0.04900
C198        C  0.67002174  0.07457343  0.70744200     0.03000
H199        H  0.61121350  0.04883321  0.65877661     0.08100
H200        H  0.68556703  0.07796976  0.73399445     0.06900
C201        C  0.58589033  0.66666540  0.85034077     0.86300
C202        C  0.59708511  0.63816718  0.89015013    -0.53900
C203        C  0.58811907  0.65195303  0.93182868     0.09300
C204        C  0.56730917  0.69250135  0.93041917     0.20200
C205        C  0.55411035  0.66380711  0.85505723    -0.54600
C206        C  0.54421294  0.67771875  0.89662535     0.09400
C207        C  0.59263097  0.71705394  0.86246895    -0.54200
C208        C  0.58301301  0.73069051  0.90447248     0.09900
H209        H  0.61136527  0.60948747  0.88569126     0.14400
H210        H  0.55950392  0.70288427  0.96464122    -0.01400
H211        H  0.53998524  0.65450348  0.82775401     0.14800
H212        H  0.60353773  0.74014615  0.83928211     0.14500
C213        C  0.60133882  0.49086225  0.24777955     0.86300
C214        C  0.60906656  0.51972313  0.20610198    -0.53900
C215        C  0.59664468  0.50598134  0.16672359     0.09300
C216        C  0.57656112  0.46478424  0.17238955     0.20200
C217        C  0.56944252  0.49231531  0.25016741    -0.54600
C218        C  0.55620415  0.47903616  0.21081188     0.09400
C219        C  0.60754752  0.44077448  0.23389131    -0.54200
C220        C  0.59460993  0.42712131  0.19449874     0.09900
H221        H  0.62344464  0.54864060  0.20760072     0.14400
H222        H  0.56619222  0.45366148  0.14025462     0.00200
H223        H  0.55826899  0.50254850  0.28079387     0.14800
H224        H  0.61867452  0.41629524  0.25513379     0.14500
N225        N  0.65274289  0.58001467  0.61881608    -0.27400
N226        N  0.67410196  0.56828796  0.64470434    -0.35300
C227        C  0.66743567  0.57500713  0.68878132     0.00900
C228        C  0.64048929  0.59135078  0.69044355     0.06900
C229        C  0.63175516  0.59382583  0.64551372    -0.06200
H230        H  0.68171604  0.57102356  0.71714815     0.07600
H231        H  0.61254077  0.60837768  0.63284257     0.08800
Cu232      Cu  0.71277171  0.55302950  0.61898376     0.44200
Cu233      Cu  0.65438476  0.58513608  0.54905026     0.42000
Cu234      Cu  0.72234826  0.58560378  0.49997133     0.43900
N235        N  0.75088820  0.55985278  0.58800615    -0.34800
N236        N  0.75426027  0.57583978  0.54592301    -0.29100
C237        C  0.78141953  0.58216661  0.53806275    -0.05200
C238        C  0.79566957  0.56890364  0.57685970     0.07000
C239        C  0.77587149  0.55454433  0.60779657     0.00800
H240        H  0.79013203  0.59461327  0.50618673     0.08500
H241        H  0.77923688  0.54283296  0.64257718     0.07600
N242        N  0.68649533  0.58164300  0.46173935    -0.36300
N243        N  0.66147340  0.58326178  0.48010522    -0.28500
C244        C  0.64240385  0.57482960  0.44777818    -0.03700
C245        C  0.65615438  0.56668508  0.40730958     0.04900
C246        C  0.68408653  0.57114117  0.41713424     0.03000
H247        H  0.62041761  0.57064984  0.45420878     0.08100
H248        H  0.70134768  0.56456706  0.39438144     0.06900
O249        O  0.10315622  0.64942976  0.59934823    -0.73100
O250        O  0.09617088  0.57409712  0.48538229    -0.74100
O251        O  0.06043714  0.60670563  0.55356401    -0.62700
O252        O  0.14148714  0.61676245  0.53050184    -0.71100
O253        O  0.14789780  0.55152885  0.56928264    -0.70700
O254        O  0.06696162  0.54319999  0.59497073    -0.61900
O255        O  0.10089888  0.50938713  0.52573403    -0.74400
O256        O  0.11162855  0.58462106  0.63776126    -0.73200
Cu257      Cu  0.10038145  0.61402459  0.54056254     1.04600
Cu258      Cu  0.10741857  0.54492236  0.58315349     1.04300
C259        C  0.10631709  0.62778416  0.63707735     0.93100
C260        C  0.09554180  0.53013250  0.48822403     0.92200
C261        C  0.05103877  0.57439791  0.57893317     0.84400
C262        C  0.15752377  0.58558075  0.54644972     0.90700
O263        O  0.87834597  0.57362242  0.66458530    -0.73100
O264        O  0.88063426  0.49790143  0.55180524    -0.74100
O265        O  0.92010414  0.53476380  0.61222863    -0.62700
O266        O  0.83748450  0.53713737  0.60503059    -0.71100
O267        O  0.83953478  0.60226334  0.56467598    -0.70700
O268        O  0.92141911  0.59844706  0.56974719    -0.61900
O269        O  0.88073948  0.56260635  0.51065224    -0.74400
O270        O  0.88183837  0.63860940  0.62434770    -0.73200
Cu271      Cu  0.87885357  0.53358386  0.60992037     1.04600
Cu272      Cu  0.88074108  0.60274896  0.56586395     1.04300
C273        C  0.88197718  0.61723429  0.66255175     0.93100
C274        C  0.88137864  0.51865945  0.51330743     0.92200
C275        C  0.93370539  0.56702100  0.59267538     0.84400
C276        C  0.82560375  0.56964494  0.58293922     0.90700
C277        C  0.89679476  0.63978807  0.78710032     0.86300
C278        C  0.88047056  0.62320023  0.74553391    -0.53900
C279        C  0.88884906  0.64133193  0.70502006     0.09300
C280        C  0.91318705  0.67566471  0.70938992     0.20200
C281        C  0.92746821  0.62947822  0.77519441    -0.54600
C282        C  0.93613645  0.64836621  0.73446296     0.09400
C283        C  0.89515234  0.69252051  0.78552221    -0.54200
C284        C  0.90363868  0.71123076  0.74493266     0.09900
H285        H  0.86489408  0.59606231  0.74770995     0.14400
H286        H  0.91999990  0.69100706  0.67634794     0.00200
H287        H  0.94181052  0.61178725  0.79772645     0.14800
H288        H  0.88833435  0.71337376  0.81426840     0.14500
C289        C  0.87686249  0.47390467  0.39099351     0.86300
C290        C  0.86927829  0.50339232  0.43287625    -0.53900
C291        C  0.88367850  0.49199121  0.47128734     0.09300
C292        C  0.90459770  0.45271115  0.46521665     0.20200
C293        C  0.90852474  0.47963756  0.38666178    -0.54600
C294        C  0.92337233  0.46940737  0.42560779     0.09400
C295        C  0.87271069  0.42399032  0.40721224    -0.54200
C296        C  0.88738222  0.41262356  0.44562371     0.09900
H297        H  0.85435382  0.53120379  0.43352587     0.14400
H298        H  0.91541437  0.44420430  0.49757598     0.00200
H299        H  0.91812055  0.49114178  0.35501536     0.14800
H300        H  0.86010890  0.39911809  0.38867770     0.14500
N301        N  0.81829019  0.51728296  0.14029136    -0.27400
N302        N  0.79573631  0.53484365  0.15912114    -0.35300
C303        C  0.79827255  0.53260674  0.20498055     0.00900
C304        C  0.82371564  0.51266560  0.21526797     0.06900
C305        C  0.83574501  0.50346292  0.17333153    -0.06200
H306        H  0.78242085  0.54351379  0.22881276     0.07600
H307        H  0.85585032  0.48812428  0.16708341     0.08800
Cu308      Cu  0.76206337  0.55772086  0.12105014     0.44200
Cu309      Cu  0.82492991  0.51239090  0.07094716     0.42000
Cu310      Cu  0.76444663  0.52222542  0.00169395     0.43900
N311        N  0.72926764  0.56452201  0.07551253    -0.34800
N312        N  0.72951495  0.54774575  0.03341848    -0.29100
C313        C  0.70402934  0.55163803  0.01513325    -0.05200
C314        C  0.68712757  0.57265535  0.04694798     0.07000
C315        C  0.70369189  0.58043690  0.08479700     0.00800
H316        H  0.69813940  0.53917301  0.98158380     0.08500
H317        H  0.69713912  0.59338364  0.11779506     0.07600
N318        N  0.80404025  0.52090296  0.97518953    -0.36300
N319        N  0.82654890  0.51803417  0.00085866    -0.28500
C320        C  0.84879561  0.52992342  0.97574466    -0.03700
C321        C  0.83974568  0.54149489  0.93227839     0.04900
C322        C  0.81128313  0.53487492  0.93305640     0.03000
H323        H  0.86935832  0.53537046  0.98969874     0.08100
H324        H  0.79658957  0.54432760  0.90660216     0.06900
C325        C  0.88790522  0.97717986  0.78556866     0.86300
C326        C  0.88725401  0.92442320  0.78235758    -0.53900
C327        C  0.89826906  0.90744754  0.74284031     0.09300
C328        C  0.90841100  0.94458133  0.70919415     0.20200
C329        C  0.91844170  0.99029350  0.77714437    -0.54600
C330        C  0.92942193  0.97311086  0.73739647     0.09400
C331        C  0.87237437  0.99277709  0.74230831    -0.54200
C332        C  0.88320093  0.97668168  0.70249921     0.09900
H333        H  0.87952246  0.90211587  0.80945519     0.14400
H334        H  0.91705285  0.93056596  0.67682570     0.00200
H335        H  0.93067329  0.00942921  0.80196097     0.14800
H336        H  0.85501945  0.01641675  0.74159722     0.14500
C337        C  0.88761013  0.15952423  0.39615377     0.86300
C338        C  0.88055258  0.20830694  0.41255597    -0.53900
C339        C  0.89177765  0.21956427  0.45401253     0.09300
C340        C  0.90945853  0.18074988  0.47540018     0.20200
C341        C  0.91959946  0.15899741  0.39666027    -0.54600
C342        C  0.93119068  0.16986906  0.43802884     0.09400
C343        C  0.87886723  0.12745214  0.43481204    -0.54200
C344        C  0.88989242  0.13828230  0.47613646     0.09900
H345        H  0.86964591  0.23341516  0.39155981     0.14400
H346        H  0.91867634  0.18981092  0.50909964     0.00200
H347        H  0.93221395  0.15293736  0.36648999     0.14800
H348        H  0.86493846  0.09832775  0.42981150     0.14500
N349        N  0.82645445  0.04249815  0.02946532    -0.27400
N350        N  0.80437659  0.05387775  0.00513436    -0.35300
C351        C  0.81035789  0.04958387  0.96053183     0.00900
C352        C  0.83762945  0.03506644  0.95667152     0.06900
C353        C  0.84716492  0.03068622  0.00111550    -0.06200
H354        H  0.79555208  0.05502577  0.93317342     0.07600
H355        H  0.86758826  0.01981495  0.01216249     0.08800
Cu356      Cu  0.76655161  0.07076082  0.03341821     0.44200
Cu357      Cu  0.82726098  0.04411652  0.09957085     0.42000
Cu358      Cu  0.76133273  0.05473187  0.15607757     0.43900
N359        N  0.72970937  0.07147633  0.06917604    -0.34800
N360        N  0.72776180  0.06151712  0.11326892    -0.29100
C361        C  0.70091237  0.06030683  0.12530201    -0.05200
C362        C  0.68541857  0.07092720  0.08708221     0.07000
C363        C  0.70412289  0.07794110  0.05206288     0.00800
H364        H  0.69333660  0.05331296  0.15950481     0.08500
H365        H  0.69949854  0.08558922  0.01657133     0.07600
N366        N  0.79876166  0.06364389  0.18858569    -0.36300
N367        N  0.82288152  0.05922370  0.16764768    -0.28500
C368        C  0.84326553  0.07204879  0.19610904    -0.03700
C369        C  0.83140083  0.08532056  0.23702309     0.04900
C370        C  0.80310105  0.07970244  0.23108384     0.03000
H371        H  0.86490962  0.07428513  0.18650280     0.08100
H372        H  0.78680350  0.08806925  0.25513887     0.06900
O373        O  0.14194233  0.11002376  0.61296090    -0.73100
O374        O  0.06078401  0.09674315  0.61206235    -0.74100
O375        O  0.10234711  0.06209183  0.66650681    -0.62700
O376        O  0.09771021  0.14428939  0.55689320    -0.71100
O377        O  0.10288882  0.08201014  0.51346025    -0.70700
O378        O  0.10408939  0.99948235  0.62273038    -0.61900
O379        O  0.06365875  0.03567676  0.56655768    -0.74400
O380        O  0.14602332  0.04747988  0.56948689    -0.73200
Cu381      Cu  0.10087856  0.10545973  0.61363924     1.04600
Cu382      Cu  0.10463379  0.03900360  0.56636638     1.04300
C383        C  0.15689258  0.08108799  0.59141807     0.93100
C384        C  0.04934124  0.06398190  0.59012730     0.92200
C385        C  0.10127179  0.01826553  0.66188387     0.84400
C386        C  0.09826487  0.12518204  0.51758999     0.90700
O387        O  0.87527960  0.04614991  0.66379799    -0.73100
O388        O  0.88245856  0.12794173  0.55574715    -0.74100
O389        O  0.83682006  0.08900074  0.60536582    -0.62700
O390        O  0.91857216  0.08306133  0.61438562    -0.71100
O391        O  0.91897105  0.02231609  0.56818283    -0.70700
O392        O  0.83708970  0.02575803  0.56230238    -0.61900
O393        O  0.88087973  0.06596997  0.51108063    -0.74400
O394        O  0.87789331  0.98284901  0.62114898    -0.73200
Cu395      Cu  0.87799303  0.08865687  0.61135033     1.04600
Cu396      Cu  0.87839504  0.02196696  0.56396757     1.04300
C397        C  0.87789548  0.00252399  0.66024022     0.93100
C398        C  0.88405112  0.10951424  0.51630843     0.92200
C399        C  0.82403318  0.05800088  0.58263366     0.84400
C400        C  0.93169180  0.05190225  0.59255323     0.90700
C401        C  0.09688498  0.64591741  0.76368560     0.86300
C402        C  0.09701767  0.69902448  0.76324825    -0.53900
C403        C  0.08586922  0.71785552  0.72438439     0.09300
C404        C  0.07553525  0.68214823  0.68942098     0.20200
C405        C  0.06636052  0.63318162  0.75544594    -0.54600
C406        C  0.05478593  0.65222805  0.71705942     0.09400
C407        C  0.11207394  0.63267598  0.71985427    -0.54200
C408        C  0.10090115  0.65054185  0.68093883     0.09900
H409        H  0.10437880  0.72073967  0.79081968     0.14400
H410        H  0.06655915  0.69744118  0.65780033     0.00200
H411        H  0.05448363  0.61277021  0.77979762     0.14800
H412        H  0.12889475  0.60768741  0.71930358     0.14500
C413        C  0.08594411  0.48297698  0.36769665     0.86300
C414        C  0.09091878  0.43322368  0.38365329    -0.53900
C415        C  0.08043279  0.42340951  0.42597049     0.09300
C416        C  0.06577072  0.46452117  0.44880168     0.20200
C417        C  0.05420750  0.48868114  0.37122231    -0.54600
C418        C  0.04346074  0.48030582  0.41389118     0.09400
C419        C  0.09760787  0.51350123  0.40578727    -0.54200
C420        C  0.08756260  0.50341892  0.44799441     0.09900
H421        H  0.10159898  0.40768263  0.36296175     0.14400
H422        H  0.05780131  0.45693212  0.48365325     0.00200
H423        H  0.04089179  0.49586404  0.34234784     0.14800
H424        H  0.11270293  0.54078690  0.39986674     0.14500
N425        N  0.15345128  0.53405840  0.12542209    -0.27400
N426        N  0.17585481  0.54611931  0.14861941    -0.35300
C427        C  0.17015293  0.54411865  0.19360751     0.00900
C428        C  0.14273560  0.53062655  0.19861362     0.06900
C429        C  0.13280696  0.52463810  0.15468720    -0.06200
H430        H  0.18505945  0.55076634  0.22055638     0.07600
H431        H  0.11258363  0.51190780  0.14460723     0.08800
Cu432      Cu  0.21353665  0.56013419  0.11787021     0.44200
Cu433      Cu  0.15215199  0.52651200  0.05580014     0.42000
Cu434      Cu  0.21695808  0.52746992  0.99735753     0.43900
N435        N  0.24947016  0.56092487  0.07936027    -0.34800
N436        N  0.25091744  0.54554170  0.03679652    -0.29100
C437        C  0.27749285  0.54638147  0.02309637    -0.05200
C438        C  0.29334871  0.56390712  0.05838861     0.07000
C439        C  0.27505462  0.57291810  0.09355380     0.00800
H440        H  0.28468768  0.53542221  0.98974940     0.08500
H441        H  0.28006256  0.58528942  0.12751827     0.07600
N442        N  0.17914268  0.52740559  0.96389992    -0.36300
N443        N  0.15522502  0.52705709  0.98595230    -0.28500
C444        C  0.13466961  0.53732162  0.95669300    -0.03700
C445        C  0.14618493  0.54432436  0.91410150     0.04900
C446        C  0.17441638  0.53804285  0.91976889     0.03000
H447        H  0.11350259  0.54454775  0.96676905     0.08100
H448        H  0.19049070  0.54600473  0.89510930     0.06900
C449        C  0.08961851  0.98052367  0.78439757     0.86300
C450        C  0.10387387  0.00420116  0.74415606    -0.53900
C451        C  0.09476340  0.99033847  0.70239878     0.09300
C452        C  0.07140081  0.95344505  0.70434065     0.20200
C453        C  0.05839243  0.98967947  0.77641046    -0.54600
C454        C  0.04870865  0.97537646  0.73473137     0.09400
C455        C  0.09287023  0.92881125  0.77583970    -0.54200
C456        C  0.08315418  0.91433162  0.73439464     0.09900
H457        H  0.11891567  0.03187458  0.74847408     0.14400
H458        H  0.06366992  0.94201066  0.67034308     0.00200
H459        H  0.04436041  0.00422146  0.80135667     0.14800
H460        H  0.10089401  0.90511067  0.80153658     0.14500
C461        C  0.09439103  0.16724672  0.39455738     0.86300
C462        C  0.10375618  0.13854073  0.43530620    -0.53900
C463        C  0.09283476  0.15200679  0.47597553     0.09300
C464        C  0.07268877  0.19333043  0.47240628     0.20200
C465        C  0.06242425  0.16580848  0.39551150    -0.54600
C466        C  0.05097235  0.17876998  0.43629895     0.09400
C467        C  0.10106912  0.21734909  0.40752572    -0.54200
C468        C  0.08968603  0.23127665  0.44808454     0.09900
H469        H  0.11783438  0.10942371  0.43208544     0.14400
H470        H  0.06344347  0.20427722  0.50548387     0.00200
H471        H  0.04966887  0.15723167  0.36608236     0.14800
H472        H  0.11147412  0.24123277  0.38450483     0.14500
N473        N  0.15255853  0.05713854  0.02410182    -0.27400
N474        N  0.17491762  0.06653633  0.99965554    -0.35300
C475        C  0.16972067  0.05748703  0.95547323     0.00900
C476        C  0.14266220  0.04205084  0.95199896     0.06900
C477        C  0.13235084  0.04228839  0.99613665    -0.06200
H478        H  0.18477431  0.06084776  0.92818158     0.07600
H479        H  0.11215970  0.03060177  0.00751468     0.08800
Cu480      Cu  0.21247210  0.08467979  0.02751133     0.44200
Cu481      Cu  0.15122093  0.06125591  0.09424510     0.42000
Cu482      Cu  0.21769729  0.06173281  0.14899668     0.43900
N483        N  0.24929203  0.07994087  0.06248393    -0.34800
N484        N  0.25111639  0.06702185  0.10582462    -0.29100
C485        C  0.27792796  0.06234823  0.11719581    -0.05200
C486        C  0.29351152  0.07370579  0.07933456     0.07000
C487        C  0.27492301  0.08485371  0.04522101     0.00800
H488        H  0.28545890  0.05299784  0.15089181     0.08500
H489        H  0.27958662  0.09461571  0.01026517     0.07600
N490        N  0.18119731  0.07313957  0.18332283    -0.36300
N491        N  0.15667304  0.07219278  0.16310466    -0.28500
C492        C  0.13715151  0.08458625  0.19330180    -0.03700
C493        C  0.15011520  0.09448011  0.23430851     0.04900
C494        C  0.17806434  0.08683387  0.22691282     0.03000
H495        H  0.11534503  0.08854371  0.18525428     0.08100
H496        H  0.19494041  0.09182254  0.25088679     0.06900
C497        C  0.11049384  0.09555090  0.28782699    -0.21500
C498        C  0.13662730  0.11255960  0.27552093    -0.09500
C499        C  0.14913941  0.14698772  0.30221586     0.29400
C500        C  0.13498653  0.16536569  0.33959438    -0.21500
C501        C  0.10805134  0.15002419  0.35099251    -0.09500
C502        C  0.09669775  0.11282460  0.32594862     0.29400
F503        F  0.07299121  0.09131625  0.33916061    -0.20000
H504        H  0.10106322  0.06768796  0.26858988     0.17700
H505        H  0.14550028  0.19105932  0.36012291     0.17700
F506        F  0.17473572  0.16359709  0.29178078    -0.20000
C507        C  0.14403703  0.00366683  0.87628962    -0.21500
C508        C  0.12862597  0.02561697  0.91049893    -0.09500
C509        C  0.09998701  0.03188280  0.90452604     0.29400
C510        C  0.08704526  0.01698654  0.86450244    -0.21500
C511        C  0.10241595  0.99530042  0.82962313    -0.09500
C512        C  0.13114376  0.98836226  0.83646310     0.29400
F513        F  0.14692463  0.96738347  0.80408725    -0.20000
H514        H  0.16611984  0.99799593  0.88047669     0.17700
H515        H  0.06512375  0.02341362  0.86159575     0.17700
F516        F  0.08458946  0.05404989  0.93655272    -0.20000
C517        C  0.06185760  0.30192353  0.46068610    -0.21500
C518        C  0.08804229  0.28095831  0.45879588    -0.09500
C519        C  0.11188523  0.30875313  0.45538370     0.29400
C520        C  0.10928689  0.35631653  0.44903699    -0.21500
C521        C  0.08293646  0.37667641  0.44590442    -0.09500
C522        C  0.05923638  0.34944652  0.45364739     0.29400
F523        F  0.03349528  0.36732487  0.44836216    -0.20000
H524        H  0.04323619  0.28099201  0.46242968     0.17700
H525        H  0.12777707  0.37681226  0.44311897     0.17700
F526        F  0.13751151  0.28933724  0.45404880    -0.20000
C527        C  0.08543036  0.51401290  0.28510999    -0.21500
C528        C  0.09986332  0.49412699  0.32224660    -0.09500
C529        C  0.12880899  0.48753122  0.31808711     0.29400
C530        C  0.14266175  0.50016653  0.27812502    -0.21500
C531        C  0.12805809  0.51935319  0.24127751    -0.09500
C532        C  0.09932810  0.52630967  0.24506367     0.29400
F533        F  0.08473961  0.54656581  0.21067115    -0.20000
H534        H  0.06358223  0.52163511  0.28648483     0.17700
H535        H  0.16481797  0.49426697  0.27579875     0.17700
F536        F  0.14385556  0.46939103  0.35312234    -0.20000
C537        C  0.06568935  0.78979909  0.75447118    -0.21500
C538        C  0.08126644  0.76796065  0.72040068    -0.09500
C539        C  0.09437722  0.79462103  0.68642401     0.29400
C540        C  0.09355912  0.84301786  0.68890343    -0.21500
C541        C  0.07960894  0.86462624  0.72518145    -0.09500
C542        C  0.06474472  0.83765983  0.75682984     0.29400
F543        F  0.05034455  0.85775861  0.79140605    -0.20000
H544        H  0.05513724  0.76959485  0.78045582     0.17700
H545        H  0.10509834  0.86344193  0.66430227     0.17700
F546        F  0.10955229  0.77400131  0.65311126    -0.20000
C547        C  0.12178775  0.54686864  0.83970935    -0.21500
C548        C  0.13309714  0.57018873  0.87702723    -0.09500
C549        C  0.13159714  0.61840422  0.87923640     0.29400
C550        C  0.11964451  0.64335710  0.84340908    -0.21500
C551        C  0.10876884  0.62041624  0.80486305    -0.09500
C552        C  0.10947549  0.57156139  0.80409670     0.29400
F553        F  0.09861110  0.54763595  0.76834153    -0.20000
H554        H  0.12253989  0.50953725  0.83815036     0.17700
H555        H  0.11925250  0.68036440  0.84656078     0.17700
F556        F  0.14191886  0.64134101  0.91602928    -0.20000
C557        C  0.00602981  0.02617186  0.56498480    -0.21500
C558        C  0.01938123  0.05874448  0.59273185    -0.09500
C559        C  0.00384830  0.08603919  0.62309476     0.29400
C560        C  0.97530186  0.08208279  0.62397813    -0.21500
C561        C  0.96181180  0.05118002  0.59466478    -0.09500
C562        C  0.97736288  0.02221862  0.56589372     0.29400
F563        F  0.96501717  0.99120416  0.53761404    -0.20000
H564        H  0.01768527  0.00436832  0.54186581     0.17700
H565        H  0.96375169  0.10410557  0.64704406     0.17700
F566        F  0.01600793  0.11700322  0.65165338    -0.20000
C567        C  0.97563739  0.20370682  0.41025555    -0.21500
C568        C  0.96171691  0.17651902  0.44283434    -0.09500
C569        C  0.97734079  0.15393965  0.47693485     0.29400
C570        C  0.00656099  0.15662177  0.47653470    -0.21500
C571        C  0.02036448  0.18184071  0.44216159    -0.09500
C572        C  0.00454785  0.20653308  0.40994284     0.29400
F573        F  0.01716349  0.23265977  0.37736771    -0.20000
H574        H  0.96401102  0.22216673  0.38425058     0.17700
H575        H  0.01840784  0.13719913  0.50155650     0.17700
F576        F  0.96452440  0.12702987  0.50861548    -0.20000
C577        C  0.88676023  0.11102954  0.32450971    -0.21500
C578        C  0.87391904  0.14484185  0.35174762    -0.09500
C579        C  0.84603640  0.15670099  0.34204671     0.29400
C580        C  0.83246069  0.13769233  0.30435741    -0.21500
C581        C  0.84586678  0.10529159  0.27660458    -0.09500
C582        C  0.87306365  0.09174998  0.28724405     0.29400
F583        F  0.88594401  0.05789051  0.26330345    -0.20000
H584        H  0.90704089  0.09755624  0.33302549     0.17700
H585        H  0.81128767  0.14802324  0.29723629     0.17700
F586        F  0.83126240  0.18488230  0.36993731    -0.20000
C587        C  0.97446319  0.93716993  0.71280069    -0.21500
C588        C  0.95965574  0.97655824  0.72665397    -0.09500
C589        C  0.97449332  0.01753011  0.73513651     0.29400
C590        C  0.00353762  0.01778154  0.73385396    -0.21500
C591        C  0.01846149  0.97737638  0.72393188    -0.09500
C592        C  0.00363152  0.93746467  0.71143254     0.29400
F593        F  0.01722020  0.89763182  0.70200303    -0.20000
H594        H  0.96357655  0.90515043  0.70614990     0.17700
H595        H  0.01449839  0.04914493  0.74288328     0.17700
F596        F  0.96096471  0.05697939  0.74633282    -0.20000
C597        C  0.87314064  0.98972259  0.91389579    -0.21500
C598        C  0.85258036  0.02397274  0.91417878    -0.09500
C599        C  0.84605040  0.04692401  0.87329414     0.29400
C600        C  0.85829705  0.03345138  0.83237981    -0.21500
C601        C  0.87689304  0.99590890  0.83084691    -0.09500
C602        C  0.88547897  0.97616587  0.87277934     0.29400
F603        F  0.90530256  0.94291619  0.87398164    -0.20000
H604        H  0.87910239  0.97238381  0.94528346     0.17700
H605        H  0.85315654  0.05358002  0.80252652     0.17700
F606        F  0.82815369  0.08307986  0.87277629    -0.20000
C607        C  0.96696010  0.50980146  0.40025300    -0.21500
C608        C  0.95421118  0.47680923  0.42880143    -0.09500
C609        C  0.97142048  0.45171620  0.45915025     0.29400
C610        C  0.00036614  0.45561569  0.45654871    -0.21500
C611        C  0.01298291  0.48387556  0.42348282    -0.09500
C612        C  0.99581253  0.51360095  0.39773544     0.29400
F613        F  0.00672855  0.54685292  0.37030446    -0.20000
H614        H  0.95464908  0.53288263  0.37933312     0.17700
H615        H  0.01271734  0.43496984  0.47960316     0.17700
F616        F  0.96091697  0.42201463  0.49044429    -0.20000
C617        C  0.91420760  0.34214776  0.46600857    -0.21500
C618        C  0.88850356  0.36457540  0.46268308    -0.09500
C619        C  0.86400271  0.33874942  0.46788316     0.29400
C620        C  0.86528714  0.29071570  0.47111798    -0.21500
C621        C  0.89098808  0.26796195  0.46959296    -0.09500
C622        C  0.91553157  0.29414229  0.47002743     0.29400
F623        F  0.94069541  0.27328914  0.46829917    -0.20000
H624        H  0.93323340  0.36104874  0.46070678     0.17700
H625        H  0.84615516  0.27100374  0.47072733     0.17700
F626        F  0.83881803  0.35966144  0.46608325    -0.20000
C627        C  0.85472708  0.46593761  0.26536039    -0.21500
C628        C  0.83583869  0.50245371  0.26067847    -0.09500
C629        C  0.82970191  0.52963717  0.29906112     0.29400
C630        C  0.84245956  0.52059970  0.34111921    -0.21500
C631        C  0.86174281  0.48420301  0.34603610    -0.09500
C632        C  0.86756409  0.45692774  0.30726032     0.29400
F633        F  0.88595922  0.42153485  0.30974842    -0.20000
H634        H  0.85966724  0.44412893  0.23643774     0.17700
H635        H  0.83720927  0.54329554  0.36886938     0.17700
F636        F  0.81231431  0.56631775  0.29571538    -0.20000
C637        C  0.97915008  0.68719311  0.70436117    -0.21500
C638        C  0.96571767  0.64681101  0.71942927    -0.09500
C639        C  0.98147593  0.60632479  0.72463990     0.29400
C640        C  0.01031995  0.60744778  0.71927111    -0.21500
C641        C  0.02419175  0.64894390  0.70897884    -0.09500
C642        C  0.00815768  0.68840560  0.69920931     0.29400
F643        F  0.02052002  0.72920602  0.68892354    -0.20000
H644        H  0.96746334  0.71878786  0.69984398     0.17700
H645        H  0.02205411  0.57624432  0.72578020     0.17700
F646        F  0.96912317  0.56600524  0.73681866    -0.20000
C647        C  0.88967418  0.78387037  0.70512311    -0.21500
C648        C  0.90573538  0.76140615  0.73850482    -0.09500
C649        C  0.92190318  0.78740285  0.76902309     0.29400
C650        C  0.92049481  0.83531910  0.76827722    -0.21500
C651        C  0.90304622  0.85782992  0.73704109    -0.09500
C652        C  0.88824733  0.83215600  0.70442530     0.29400
F653        F  0.87103756  0.85355671  0.67429814    -0.20000
H654        H  0.87711690  0.76403179  0.68145762     0.17700
H655        H  0.93219648  0.85495540  0.79329116     0.17700
F656        F  0.93827969  0.76627535  0.80059757    -0.20000
C657        C  0.89775509  0.58335220  0.85518058    -0.21500
C658        C  0.88429456  0.61841819  0.83003409    -0.09500
C659        C  0.85641299  0.62881876  0.84080870     0.29400
C660        C  0.84226906  0.60374576  0.87406320    -0.21500
C661        C  0.85543869  0.56787525  0.89777220    -0.09500
C662        C  0.88348236  0.55841210  0.88882088     0.29400
F663        F  0.89668318  0.52343659  0.91083441    -0.20000
H664        H  0.91878697  0.57310633  0.84785196     0.17700
H665        H  0.82081899  0.61238833  0.88102800     0.17700
F666        F  0.84221568  0.66164726  0.81720399    -0.20000
C667        C  0.00850357  0.53114094  0.59979286    -0.21500
C668        C  0.02147907  0.57320079  0.58927883    -0.09500
C669        C  0.00571912  0.61379716  0.58645872     0.29400
C670        C  0.97709403  0.61149943  0.58981054    -0.21500
C671        C  0.96385958  0.56889254  0.59625582    -0.09500
C672        C  0.97971946  0.52889159  0.60340663     0.29400
F673        F  0.96746311  0.48737864  0.61102557    -0.20000
H674        H  0.02048270  0.49967480  0.60293879     0.17700
H675        H  0.96520289  0.64301611  0.58613076     0.17700
F676        F  0.01787036  0.65555258  0.57953496    -0.20000
C677        C  0.63876470  0.48686076  0.31011505    -0.21500
C678        C  0.61568601  0.50930902  0.29032430    -0.09500
C679        C  0.60757061  0.55252139  0.30811810     0.29400
C680        C  0.62096984  0.57099866  0.34614569    -0.21500
C681        C  0.64348309  0.54802316  0.36586254    -0.09500
C682        C  0.65253152  0.50604370  0.34753556     0.29400
F683        F  0.67415816  0.48289921  0.36663046    -0.20000
H684        H  0.64697777  0.45515408  0.29647878     0.17700
H685        H  0.61398418  0.60366107  0.35995382     0.17700
F686        F  0.58683652  0.57729852  0.28838802    -0.20000
C687        C  0.58375688  0.62731251  0.77164398    -0.21500
C688        C  0.59897983  0.65050738  0.80588406    -0.09500
C689        C  0.62807555  0.65398335  0.80101361     0.29400
C690        C  0.64141068  0.63423060  0.76368484    -0.21500
C691        C  0.62614159  0.61089402  0.73015643    -0.09500
C692        C  0.59719319  0.60780345  0.73414109     0.29400
F693        F  0.58196369  0.58417434  0.70280701    -0.20000
H694        H  0.56165664  0.62220975  0.77385732     0.17700
H695        H  0.66375143  0.63749406  0.76091163     0.17700
F696        F  0.64382109  0.67514402  0.83339680    -0.20000
C697        C  0.56778175  0.35573403  0.17983633    -0.21500
C698        C  0.59362678  0.37791614  0.18200995    -0.09500
C699        C  0.61800762  0.35136514  0.18337645     0.29400
C700        C  0.61632682  0.30364598  0.18893557    -0.21500
C701        C  0.59036219  0.28199823  0.19237227    -0.09500
C702        C  0.56608532  0.30788576  0.18502997     0.29400
F703        F  0.54066432  0.28796567  0.18848434    -0.20000
H704        H  0.54878742  0.37571783  0.17903153     0.17700
H705        H  0.63522135  0.28398206  0.19385261     0.17700
F706        F  0.64331724  0.37206444  0.18356418    -0.20000
C707        C  0.63140348  0.17890596  0.33055093    -0.21500
C708        C  0.60547372  0.16116824  0.31647863    -0.09500
C709        C  0.59456033  0.12260925  0.34015202     0.29400
C710        C  0.60828347  0.10452488  0.37806345    -0.21500
C711        C  0.63390897  0.12243900  0.39176874    -0.09500
C712        C  0.64551821  0.15971402  0.36777956     0.29400
F713        F  0.67039442  0.17776449  0.38040896    -0.20000
H714        H  0.64158557  0.20629370  0.31184684     0.17700
H715        H  0.59937931  0.07508602  0.39569718     0.17700
F716        F  0.57129426  0.10066195  0.32549346    -0.20000
C717        C  0.56594958  0.85042983  0.94790493    -0.21500
C718        C  0.58967802  0.87470608  0.93382010    -0.09500
C719        C  0.61304207  0.84976857  0.91902349     0.29400
C720        C  0.61129779  0.80220132  0.91265642    -0.21500
C721        C  0.58634193  0.77865902  0.92110760    -0.09500
C722        C  0.56403955  0.80273092  0.94100434     0.29400
F723        F  0.53949774  0.78135149  0.94953937    -0.20000
H724        H  0.54798784  0.86877507  0.96054796     0.17700
H725        H  0.62907095  0.78407046  0.89886070     0.17700
F726        F  0.63704564  0.87180110  0.90809979    -0.20000
C727        C  0.58664647  0.03443407  0.79982015    -0.21500
C728        C  0.60257539  0.01431956  0.83507712    -0.09500
C729        C  0.63170258  0.01284133  0.83004604     0.29400
C730        C  0.64433583  0.03030511  0.79096156    -0.21500
C731        C  0.62839514  0.04930633  0.75552100    -0.09500
C732        C  0.59940600  0.05171072  0.76041895     0.29400
F733        F  0.58333516  0.07123567  0.72746534    -0.20000
H734        H  0.56438199  0.03710250  0.80182167     0.17700
H735        H  0.66666771  0.02749425  0.78803325     0.17700
F736        F  0.64809652  0.99411627  0.86309666    -0.20000
C737        C  0.50440273  0.11680583  0.05276442    -0.21500
C738        C  0.51823273  0.07680359  0.06706252    -0.09500
C739        C  0.50326825  0.03678798  0.07824641     0.29400
C740        C  0.47469635  0.03776438  0.07755616    -0.21500
C741        C  0.46077821  0.07835410  0.06546192    -0.09500
C742        C  0.47568424  0.11767581  0.05180310     0.29400
F743        F  0.46266885  0.15729409  0.03930620    -0.20000
H744        H  0.51575326  0.14778387  0.04364290     0.17700
H745        H  0.46347604  0.00669495  0.08684325     0.17700
F746        F  0.51610685  0.99675658  0.08998845    -0.20000
C747        C  0.47324558  0.21276560  0.25847814    -0.21500
C748        C  0.45909207  0.18925453  0.22357084    -0.09500
C749        C  0.47451235  0.17022741  0.18731416     0.29400
C750        C  0.50376213  0.17165059  0.18820419    -0.21500
C751        C  0.51786443  0.19230936  0.22512199    -0.09500
C752        C  0.50218678  0.21467889  0.25917465     0.29400
F753        F  0.51485258  0.23808297  0.29361466    -0.20000
H754        H  0.46177478  0.22906850  0.28593625     0.17700
H755        H  0.51534961  0.15466111  0.16130951     0.17700
F756        F  0.46141993  0.14785064  0.15271805    -0.20000
C757        C  0.36772557  0.17783246  0.39626390    -0.21500
C758        C  0.34754067  0.14333660  0.40129936    -0.09500
C759        C  0.34056590  0.11577666  0.36360761     0.29400
C760        C  0.35285080  0.12367150  0.32124230    -0.21500
C761        C  0.37242742  0.15942714  0.31520639    -0.09500
C762        C  0.38000778  0.18596108  0.35375224     0.29400
F763        F  0.39888143  0.22062442  0.35004361    -0.20000
H764        H  0.37345955  0.19947131  0.42496171     0.17700
H765        H  0.34628246  0.10140722  0.29391802     0.17700
F766        F  0.32214041  0.08051521  0.36764116    -0.20000
C767        C  0.47499038  0.93797385  0.91793995    -0.21500
C768        C  0.46038484  0.97689838  0.93297258    -0.09500
C769        C  0.47527019  0.01459511  0.95072967     0.29400
C770        C  0.50442444  0.01361507  0.95227643    -0.21500
C771        C  0.51905959  0.97530500  0.93549677    -0.09500
C772        C  0.50405407  0.93724715  0.91877848     0.29400
F773        F  0.51747802  0.90118904  0.89927365    -0.20000
H774        H  0.46393675  0.90943444  0.90242940     0.17700
H775        H  0.51562783  0.04388085  0.96382234     0.17700
F776        F  0.46168892  0.05350653  0.96338330    -0.20000
C777        C  0.39235799  0.04890515  0.80379767    -0.21500
C778        C  0.37726778  0.01810711  0.83170540    -0.09500
C779        C  0.34839382  0.01388916  0.82434098     0.29400
C780        C  0.33519152  0.03973254  0.79054473    -0.21500
C781        C  0.35021400  0.07082143  0.76330067    -0.09500
C782        C  0.37901180  0.07507074  0.77012247     0.29400
F783        F  0.39417752  0.10615467  0.74590740    -0.20000
H784        H  0.41420023  0.05512752  0.80898452     0.17700
H785        H  0.31305247  0.03529939  0.78598681     0.17700
F786        F  0.33255073  0.98644575  0.85159995    -0.20000
C787        C  0.48053531  0.49235861  0.17195121    -0.21500
C788        C  0.46628011  0.47736366  0.21131503    -0.09500
C789        C  0.48177734  0.45881149  0.24791819     0.29400
C790        C  0.51073117  0.45802595  0.24638915    -0.21500
C791        C  0.52522926  0.47549828  0.20840794    -0.09500
C792        C  0.50983072  0.49146036  0.17044368     0.29400
F793        F  0.52304588  0.50858889  0.13310887    -0.20000
H794        H  0.46908300  0.50666931  0.14330596     0.17700
H795        H  0.52192689  0.44421389  0.27554412     0.17700
F796        F  0.46888976  0.44183999  0.28573591    -0.20000
C797        C  0.41594856  0.30540539  0.19249687    -0.21500
C798        C  0.39029575  0.28385470  0.20065194    -0.09500
C799        C  0.36629891  0.31106465  0.20489620     0.29400
C800        C  0.36845954  0.35903898  0.20591645    -0.21500
C801        C  0.39446388  0.38049543  0.20204514    -0.09500
C802        C  0.41808493  0.35354417  0.19319071     0.29400
F803        F  0.44356111  0.37332921  0.18984355    -0.20000
H804        H  0.43471092  0.28505705  0.18953245     0.17700
H805        H  0.34999502  0.37944708  0.21198978     0.17700
F806        F  0.34102727  0.29114591  0.21088237    -0.20000
C807        C  0.33621112  0.54405662  0.33863075    -0.21500
C808        C  0.35063547  0.57502127  0.36688957    -0.09500
C809        C  0.37971758  0.57769587  0.36318913     0.29400
C810        C  0.39382168  0.55084269  0.33122998    -0.21500
C811        C  0.37935644  0.52088603  0.30165875    -0.09500
C812        C  0.35025729  0.51745368  0.30642215     0.29400
F813        F  0.33509263  0.49022708  0.27800220    -0.20000
H814        H  0.31389810  0.54051008  0.34090297     0.17700
H815        H  0.41587740  0.55628200  0.32861040     0.17700
F816        F  0.39465426  0.60803749  0.38857997    -0.20000
C817        C  0.46961467  0.70867717  0.87132232    -0.21500
C818        C  0.45518438  0.68368680  0.90488480    -0.09500
C819        C  0.47028546  0.66186966  0.93997623     0.29400
C820        C  0.49954338  0.66200991  0.93925385    -0.21500
C821        C  0.51386893  0.68440820  0.90363530    -0.09500
C822        C  0.49856677  0.70941460  0.87082491     0.29400
F823        F  0.51169987  0.73340879  0.83720794    -0.20000
H824        H  0.45836005  0.72677372  0.84462540     0.17700
H825        H  0.51091770  0.64274468  0.96495506     0.17700
F826        F  0.45670396  0.63807961  0.97301835    -0.20000
C827        C  0.36205029  0.80614844  0.92192334    -0.21500
C828        C  0.38608525  0.77951559  0.92853852    -0.09500
C829        C  0.41091311  0.80186939  0.94137515     0.29400
C830        C  0.41207772  0.85013165  0.94305797    -0.21500
C831        C  0.38876132  0.87655138  0.93128396    -0.09500
C832        C  0.36334886  0.85423283  0.92308863     0.29400
F833        F  0.34008508  0.87902327  0.91394105    -0.20000
H834        H  0.34255005  0.78973308  0.91310131     0.17700
H835        H  0.43174841  0.86678782  0.95004170     0.17700
F836        F  0.43471529  0.77772750  0.94781593    -0.20000
C837        C  0.35197039  0.61700840  0.80453076    -0.21500
C838        C  0.36920568  0.65560946  0.81210349    -0.09500
C839        C  0.37608840  0.68374616  0.77423713     0.29400
C840        C  0.36507429  0.67463163  0.73098869    -0.21500
C841        C  0.34716020  0.63706451  0.72420138    -0.09500
C842        C  0.34115713  0.60778419  0.76126162     0.29400
F843        F  0.32535920  0.56938598  0.75575826    -0.20000
H844        H  0.34671652  0.59290322  0.83119694     0.17700
H845        H  0.37018942  0.69770223  0.70303135     0.17700
F846        F  0.39332536  0.72054024  0.77914855    -0.20000
C847        C  0.50450291  0.55403933  0.02211747    -0.21500
C848        C  0.51903885  0.58100730  0.05380514    -0.09500
C849        C  0.50464169  0.60759012  0.08614475     0.29400
C850        C  0.47587703  0.60693851  0.08653380    -0.21500
C851        C  0.46140250  0.57976530  0.05489818    -0.09500
C852        C  0.47589162  0.55325224  0.02255048     0.29400
F853        F  0.46255235  0.52753799  0.99047032    -0.20000
H854        H  0.51525598  0.53377110  0.99654506     0.17700
H855        H  0.46496670  0.62718626  0.11192896     0.17700
F856        F  0.51822365  0.63327007  0.11792302    -0.20000
loop_ 
_geom_bond_atom_site_label_1 
_geom_bond_atom_site_label_2 
_geom_bond_distance 
_geom_bond_site_symmetry_2 
_ccdc_geom_bond_type 
O1           Cu9   1.984       .  S
O1           C11   1.277       .  A
O2           Cu9   2.001       .  S
O2           C12   1.275   1_554  A
O3           Cu9   1.964       .  S
O3           C13   1.273       .  A
O4           Cu9   2.005       .  S
O4           C14   1.277       .  A
O5          Cu10   1.993       .  S
O5           C14   1.275       .  A
O6          Cu10   1.953       .  S
O6           C13   1.273       .  A
O7          Cu10   1.985   1_556  S
O7           C12   1.277       .  A
O8          Cu10   1.998       .  S
O8           C11   1.275       .  A
Cu9         Cu10   2.380       .  S
C11         C215   1.460       .  S
C12         C203   1.463       .  S
C13         C848   1.448       .  S
C14         C314   1.458       .  S
O15         Cu23   2.024       .  S
O15          C25   1.278       .  A
O16         Cu23   2.009   1_556  S
O16          C26   1.280       .  A
O17         Cu23   1.938       .  S
O17          C27   1.270       .  A
O18         Cu23   1.984       .  S
O18          C28   1.274       .  A
O19         Cu24   2.015       .  S
O19          C28   1.278       .  A
O20         Cu24   1.978       .  S
O20          C27   1.276       .  A
O21         Cu24   1.991       .  S
O21          C26   1.273   1_554  A
O22         Cu24   1.970       .  S
O22          C25   1.276       .  A
Cu23        Cu24   2.378       .  S
C25          C48   1.469       .  S
C26          C36   1.467       .  S
C27         C851   1.448       .  S
C28         C438   1.458       .  S
C29          C30   1.536       .  S
C29          C35   1.537       .  S
C29          C33   1.535       .  S
C29         C838   1.524       .  S
C30          H37   1.086       .  S
C30          C31   1.368       .  D
C31         C828   1.486       .  S
C31          C32   1.540       .  S
C32          C36   1.546       .  S
C32          C34   1.542       .  S
C32          H38   1.110       .  S
C33          H39   1.087       .  S
C33          C34   1.365       .  D
C34         C818   1.487       .  S
C35          H40   1.081       .  S
C35          C36   1.357       .  D
C41          C42   1.536       .  S
C41          C47   1.519       .  S
C41          C45   1.541       .  S
C41         C811   1.523       .  S
C42          H49   1.086       .  S
C42          C43   1.370       .  D
C43         C801   1.475       .  S
C43          C44   1.539       .  S
C44          C48   1.548       .  S
C44          C46   1.549       .  S
C44          H50   1.111       .  S
C45          H51   1.082       .  S
C45          C46   1.368       .  D
C46         C788   1.495       .  S
C47          H52   1.088       .  S
C47          C48   1.355       .  D
N53          N54   1.319       .  A
N53          C57   1.342       .  A
N53         Cu61   2.049       .  S
N54          C55   1.340       .  A
N54         Cu60   2.060       .  S
C55          C56   1.385       .  A
C55          H58   1.081       .  S
C56         C841   1.475       .  S
C56          C57   1.384       .  A
C57          H59   1.082       .  S
Cu60         N63   2.059       .  S
Cu61         N71   2.048       .  S
Cu62         N64   2.070       .  S
Cu62         N70   2.069       .  S
N63          N64   1.322       .  A
N63          C67   1.341       .  A
N64          C65   1.345       .  A
C65          C66   1.382       .  A
C65          H68   1.082       .  S
C66         C262   1.460       .  S
C66          C67   1.378       .  A
C67          H69   1.082       .  S
N70          N71   1.320       .  A
N70          C74   1.343       .  A
N71          C72   1.339       .  A
C72          C73   1.383       .  A
C72          H75   1.080       .  S
C73         C808   1.481       .  S
C73          C74   1.388       .  A
C74          H76   1.081       .  S
C77          C78   1.520   1_565  S
C77          C83   1.535       .  S
C77          C81   1.545       .  S
C77         C778   1.521   1_565  S
C78          H85   1.088       .  S
C78          C79   1.354       .  D
C79         C149   1.463       .  S
C79          C80   1.545   1_545  S
C80          C84   1.540       .  S
C80          C82   1.544       .  S
C80          H86   1.111       .  S
C81          H87   1.083   1_565  S
C81          C82   1.366       .  D
C82         C768   1.483       .  S
C83          H88   1.086       .  S
C83          C84   1.369       .  D
C84         C831   1.479       .  S
C89          C90   1.532       .  S
C89          C95   1.533       .  S
C89          C93   1.536       .  S
C89         C761   1.523       .  S
C90          H97   1.080       .  S
C90          C91   1.356       .  D
C91         C150   1.462       .  S
C91          C92   1.544       .  S
C92          C96   1.538       .  S
C92          C94   1.544       .  S
C92          H98   1.111       .  S
C93          H99   1.086       .  S
C93          C94   1.368       .  D
C94         C748   1.489       .  S
C95         H100   1.087       .  S
C95          C96   1.366       .  D
C96         C798   1.478       .  S
N101        N102   1.320       .  A
N101        C105   1.342       .  A
N101       Cu109   2.053       .  S
N102        C103   1.340       .  A
N102       Cu108   2.058       .  S
C103        C104   1.383       .  A
C103        H106   1.081       .  S
C104        C758   1.470       .  S
C104        C105   1.382       .  A
C105        H107   1.082       .  S
Cu108       N111   2.058       .  S
Cu109       N119   2.052       .  S
Cu110       N112   2.063       .  S
Cu110       N118   2.063       .  S
N111        N112   1.322       .  A
N111        C115   1.344       .  A
N112        C113   1.342       .  A
C113        C114   1.379       .  A
C113        H116   1.082       .  S
C114        C383   1.455       .  S
C114        C115   1.378       .  A
C115        H117   1.082       .  S
N118        N119   1.320       .  A
N118        C122   1.342       .  A
N119        C120   1.341       .  A
C120        C121   1.383       .  A
C120        H123   1.081       .  S
C121        C781   1.477       .  S
C121        C122   1.387       .  A
C122        H124   1.081       .  S
O125       Cu133   1.995       .  S
O125        C135   1.275       .  A
O126       Cu133   1.960       .  S
O126        C136   1.273       .  A
O127       Cu133   1.996       .  S
O127        C137   1.275       .  A
O128       Cu133   1.977       .  S
O128        C138   1.277       .  A
O129       Cu134   2.012       .  S
O129        C138   1.276       .  A
O130       Cu134   1.997       .  S
O130        C137   1.278       .  A
O131       Cu134   1.944       .  S
O131        C136   1.272       .  A
O132       Cu134   1.987       .  S
O132        C135   1.275       .  A
Cu133      Cu134   2.380       .  S
C135        C362   1.450       .  S
C136        C738   1.443       .  S
C137        C172   1.463       .  S
C138        C160   1.468   1_554  S
O139       Cu147   1.975   1_556  S
O139        C149   1.277       .  A
O140       Cu147   1.998       .  S
O140        C150   1.274       .  A
O141       Cu147   1.959       .  S
O141        C151   1.272       .  A
O142       Cu147   1.990       .  S
O142        C152   1.275       .  A
O143       Cu148   1.984       .  S
O143        C152   1.274       .  A
O144       Cu148   1.946       .  S
O144        C151   1.273       .  A
O145       Cu148   1.987       .  S
O145        C150   1.278       .  A
O146       Cu148   2.003       .  S
O146        C149   1.275   1_554  A
Cu147      Cu148   2.381       .  S
C151        C741   1.443       .  S
C152        C486   1.447       .  S
C153        C154   1.529       .  S
C153        C159   1.522   1_565  S
C153        C157   1.542       .  S
C153        C728   1.519   1_565  S
C154        H161   1.086       .  S
C154        C155   1.366       .  D
C155        C718   1.482       .  S
C155        C156   1.543       .  S
C156        C160   1.549   1_565  S
C156        C158   1.547       .  S
C156        H162   1.111       .  S
C157        H163   1.082   1_565  S
C157        C158   1.365       .  D
C158        C771   1.484       .  S
C159        H164   1.087       .  S
C159        C160   1.358       .  D
C165        C166   1.541       .  S
C165        C171   1.523       .  S
C165        C169   1.537       .  S
C165        C708   1.519       .  S
C166        H173   1.085       .  S
C166        C167   1.369       .  D
C167        C701   1.474       .  S
C167        C168   1.535       .  S
C168        C172   1.544       .  S
C168        C170   1.546       .  S
C168        H174   1.111       .  S
C169        H175   1.085       .  S
C169        C170   1.367       .  D
C170        C751   1.493       .  S
C171        H176   1.087       .  S
C171        C172   1.354       .  D
N177        N178   1.321       .  A
N177        C181   1.339       .  A
N177       Cu185   2.050       .  S
N178        C179   1.343       .  A
N178       Cu184   2.059       .  S
C179        C180   1.382       .  A
C179        H182   1.082       .  S
C180        C711   1.465       .  S
C180        C181   1.378       .  A
C181        H183   1.082       .  S
Cu184       N187   2.058       .  S
Cu185       N195   2.051       .  S
Cu186       N188   2.055       .  S
Cu186       N194   2.055       .  S
N187        N188   1.322       .  A
N187        C191   1.342       .  A
N188        C189   1.341       .  A
C189        C190   1.376       .  A
C189        H192   1.082       .  S
C190        C399   1.451       .  S
C190        C191   1.378       .  A
C191        H193   1.082       .  S
N194        N195   1.319       .  A
N194        C198   1.340       .  A
N195        C196   1.341       .  A
C196        C197   1.383       .  A
C196        H199   1.081       .  S
C197        C731   1.472       .  S
C197        C198   1.385       .  A
C198        H200   1.082       .  S
C201        C202   1.523       .  S
C201        C207   1.537       .  S
C201        C205   1.539       .  S
C201        C688   1.519       .  S
C202        H209   1.088       .  S
C202        C203   1.353       .  D
C203        C204   1.546       .  S
C204        C208   1.538       .  S
C204        C206   1.547       .  S
C204        H210   1.110       .  S
C205        H211   1.082       .  S
C205        C206   1.366       .  D
C206        C821   1.489       .  S
C207        H212   1.086       .  S
C207        C208   1.370       .  D
C208        C721   1.482       .  S
C213        C214   1.521       .  S
C213        C219   1.538       .  S
C213        C217   1.538       .  S
C213        C678   1.518       .  S
C214        H221   1.087       .  S
C214        C215   1.356       .  D
C215        C216   1.544       .  S
C216        C220   1.537       .  S
C216        C218   1.548       .  S
C216        H222   1.110       .  S
C217        H223   1.086       .  S
C217        C218   1.369       .  D
C218        C791   1.497       .  S
C219        H224   1.083       .  S
C219        C220   1.366       .  D
C220        C698   1.473       .  S
N225        N226   1.320       .  A
N225        C229   1.339       .  A
N225       Cu233   2.043       .  S
N226        C227   1.341       .  A
N226       Cu232   2.058       .  S
C227        C228   1.383       .  A
C227        H230   1.082       .  S
C228        C691   1.466       .  S
C228        C229   1.379       .  A
C229        H231   1.082       .  S
Cu232       N235   2.056       .  S
Cu233       N243   2.043       .  S
Cu234       N236   2.058       .  S
Cu234       N242   2.058       .  S
N235        N236   1.322       .  A
N235        C239   1.343       .  A
N236        C237   1.340       .  A
C237        C238   1.378       .  A
C237        H240   1.082       .  S
C238        C276   1.452       .  S
C238        C239   1.377       .  A
C239        H241   1.082       .  S
N242        N243   1.320       .  A
N242        C246   1.343       .  A
N243        C244   1.339       .  A
C244        C245   1.376       .  A
C244        H247   1.082       .  S
C245        C681   1.459       .  S
C245        C246   1.381       .  A
C246        H248   1.082       .  S
O249       Cu257   2.006       .  S
O249        C259   1.275       .  A
O250       Cu257   1.995       .  S
O250        C260   1.277       .  A
O251       Cu257   1.972       .  S
O251        C261   1.275       .  A
O252       Cu257   2.003       .  S
O252        C262   1.276       .  A
O253       Cu258   2.000       .  S
O253        C262   1.277       .  A
O254       Cu258   1.980       .  S
O254        C261   1.274       .  A
O255       Cu258   1.994       .  S
O255        C260   1.274       .  A
O256       Cu258   1.978       .  S
O256        C259   1.277       .  A
Cu257      Cu258   2.379       .  S
C259        C408   1.465       .  S
C260        C420   1.459       .  S
C261        C668   1.456       .  S
O263       Cu271   1.975       .  S
O263        C273   1.277       .  A
O264       Cu271   1.991       .  S
O264        C274   1.274       .  A
O265       Cu271   1.988       .  S
O265        C275   1.275       .  A
O266       Cu271   2.000       .  S
O266        C276   1.276       .  A
O267       Cu272   1.985       .  S
O267        C276   1.275       .  A
O268       Cu272   1.966       .  S
O268        C275   1.275       .  A
O269       Cu272   1.990       .  S
O269        C274   1.276       .  A
O270       Cu272   2.001       .  S
O270        C273   1.275       .  A
Cu271      Cu272   2.381       .  S
C273        C279   1.462       .  S
C274        C291   1.456       .  S
C275        C671   1.457       .  S
C277        C278   1.524       .  S
C277        C283   1.531       .  S
C277        C281   1.547       .  S
C277        C658   1.521       .  S
C278        H285   1.088       .  S
C278        C279   1.355       .  D
C279        C280   1.542       .  S
C280        C284   1.535       .  S
C280        C282   1.543       .  S
C280        H286   1.111       .  S
C281        H287   1.082       .  S
C281        C282   1.373       .  D
C282        C638   1.492       .  S
C283        H288   1.087       .  S
C283        C284   1.365       .  D
C284        C648   1.469       .  S
C289        C290   1.538       .  S
C289        C295   1.534       .  S
C289        C293   1.539       .  S
C289        C631   1.529       .  S
C290        H297   1.081       .  S
C290        C291   1.358       .  D
C291        C292   1.532       .  S
C292        C296   1.537       .  S
C292        C294   1.545       .  S
C292        H298   1.106       .  S
C293        H299   1.085       .  S
C293        C294   1.374       .  D
C294        C608   1.503       .  S
C295        H300   1.086       .  S
C295        C296   1.365       .  D
C296        C618   1.479       .  S
N301        N302   1.321       .  A
N301        C305   1.340       .  A
N301       Cu309   2.055       .  S
N302        C303   1.346       .  A
N302       Cu308   2.074       .  S
C303        C304   1.388       .  A
C303        H306   1.081       .  S
C304        C628   1.477       .  S
C304        C305   1.382       .  A
C305        H307   1.082       .  S
Cu308       N311   2.073       .  S
Cu309       N319   2.054       .  S
Cu310       N312   2.060       .  S
Cu310       N318   2.059   1_554  S
N311        N312   1.323       .  A
N311        C315   1.344       .  A
N312        C313   1.343       .  A
C313        C314   1.379       .  A
C313        H316   1.082   1_554  S
C314        C315   1.381       .  A
C315        H317   1.082       .  S
N318        N319   1.320   1_556  A
N318        C322   1.340       .  A
N319        C320   1.343   1_554  A
C320        C321   1.382       .  A
C320        H323   1.082       .  S
C321        C661   1.472       .  S
C321        C322   1.384       .  A
C322        H324   1.082       .  S
C325        C326   1.532       .  S
C325        C331   1.535       .  S
C325        C329   1.538       .  S
C325        C601   1.526       .  S
C326        H333   1.086       .  S
C326        C327   1.363       .  D
C327        C651   1.467       .  S
C327        C328   1.535       .  S
C328        C332   1.542       .  S
C328        C330   1.544       .  S
C328        H334   1.111       .  S
C329        H335   1.086   1_565  S
C329        C330   1.371       .  D
C330        C588   1.493       .  S
C331        H336   1.081   1_565  S
C331        C332   1.358       .  D
C332        C397   1.464   1_565  S
C337        C338   1.532       .  S
C337        C343   1.520       .  S
C337        C341   1.541       .  S
C337        C578   1.515       .  S
C338        H345   1.086       .  S
C338        C339   1.365       .  D
C339        C621   1.476       .  S
C339        C340   1.542       .  S
C340        C344   1.549       .  S
C340        C342   1.546       .  S
C340        H346   1.111       .  S
C341        H347   1.085       .  S
C341        C342   1.367       .  D
C342        C568   1.489       .  S
C343        H348   1.087       .  S
C343        C344   1.355       .  D
C344        C398   1.465       .  S
N349        N350   1.320       .  A
N349        C353   1.342       .  A
N349       Cu357   2.048       .  S
N350        C351   1.340   1_554  A
N350       Cu356   2.061       .  S
C351        C352   1.384       .  A
C351        H354   1.081       .  S
C352        C598   1.471       .  S
C352        C353   1.381   1_556  A
C353        H355   1.082       .  S
Cu356       N359   2.060       .  S
Cu357       N367   2.047       .  S
Cu358       N360   2.052       .  S
Cu358       N366   2.052       .  S
N359        N360   1.322       .  A
N359        C363   1.342       .  A
N360        C361   1.341       .  A
C361        C362   1.376       .  A
C361        H364   1.082       .  S
C362        C363   1.378       .  A
C363        H365   1.082       .  S
N366        N367   1.320       .  A
N366        C370   1.342       .  A
N367        C368   1.338       .  A
C368        C369   1.380       .  A
C368        H371   1.082       .  S
C369        C581   1.468       .  S
C369        C370   1.383       .  A
C370        H372   1.082       .  S
O373       Cu381   1.982       .  S
O373        C383   1.273       .  A
O374       Cu381   1.948       .  S
O374        C384   1.271       .  A
O375       Cu381   1.989       .  S
O375        C385   1.278       .  A
O376       Cu381   2.006       .  S
O376        C386   1.275       .  A
O377       Cu382   1.984       .  S
O377        C386   1.277       .  A
O378       Cu382   2.003   1_565  S
O378        C385   1.275   1_565  A
O379       Cu382   1.976       .  S
O379        C384   1.275       .  A
O380       Cu382   2.010       .  S
O380        C383   1.278       .  A
Cu381      Cu382   2.379       .  S
C384        C558   1.453       .  S
C385        C451   1.466   1_545  S
C386        C463   1.464       .  S
O387       Cu395   1.967       .  S
O387        C397   1.275       .  A
O388       Cu395   1.992       .  S
O388        C398   1.273       .  A
O389       Cu395   1.990       .  S
O389        C399   1.276       .  A
O390       Cu395   1.963       .  S
O390        C400   1.275       .  A
O391       Cu396   1.958       .  S
O391        C400   1.272       .  A
O392       Cu396   1.993       .  S
O392        C399   1.275       .  A
O393       Cu396   2.004       .  S
O393        C398   1.280       .  A
O394       Cu396   2.016   1_565  S
O394        C397   1.277   1_565  A
Cu395      Cu396   2.379       .  S
C400        C561   1.452       .  S
C401        C402   1.539       .  S
C401        C407   1.525       .  S
C401        C405   1.534       .  S
C401        C551   1.521       .  S
C402        H409   1.082       .  S
C402        C403   1.367       .  D
C403        C538   1.473       .  S
C403        C404   1.537       .  S
C404        C408   1.548       .  S
C404        C406   1.548       .  S
C404        H410   1.110       .  S
C405        H411   1.087       .  S
C405        C406   1.367       .  D
C406        C641   1.495       .  S
C407        H412   1.087       .  S
C407        C408   1.358       .  D
C413        C414   1.533       .  S
C413        C419   1.528       .  S
C413        C417   1.541       .  S
C413        C528   1.521       .  S
C414        H421   1.087       .  S
C414        C415   1.364       .  D
C415        C521   1.478       .  S
C415        C416   1.539       .  S
C416        C420   1.539       .  S
C416        C418   1.549       .  S
C416        H422   1.109       .  S
C417        H423   1.079       .  S
C417        C418   1.370       .  D
C418        C611   1.498       .  S
C419        H424   1.087       .  S
C419        C420   1.355       .  D
N425        N426   1.320       .  A
N425        C429   1.339       .  A
N425       Cu433   2.046       .  S
N426        C427   1.343       .  A
N426       Cu432   2.065       .  S
C427        C428   1.384       .  A
C427        H430   1.082       .  S
C428        C531   1.469       .  S
C428        C429   1.379       .  A
C429        H431   1.082       .  S
Cu432       N435   2.065       .  S
Cu433       N443   2.045   1_554  S
Cu434       N436   2.067   1_556  S
Cu434       N442   2.066       .  S
N435        N436   1.323       .  A
N435        C439   1.345       .  A
N436        C437   1.341       .  A
C437        C438   1.379       .  A
C437        H440   1.082   1_554  S
C438        C439   1.379       .  A
C439        H441   1.082       .  S
N442        N443   1.320       .  A
N442        C446   1.343       .  A
N443        C444   1.340       .  A
C444        C445   1.377       .  A
C444        H447   1.082       .  S
C445        C548   1.458       .  S
C445        C446   1.382       .  A
C446        H448   1.082       .  S
C449        C450   1.523   1_565  S
C449        C455   1.528       .  S
C449        C453   1.545       .  S
C449        C511   1.519       .  S
C450        H457   1.087       .  S
C450        C451   1.357   1_545  D
C451        C452   1.552       .  S
C452        C456   1.540       .  S
C452        C454   1.546       .  S
C452        H458   1.111       .  S
C453        H459   1.081   1_565  S
C453        C454   1.368       .  D
C454        C591   1.491       .  S
C455        H460   1.087       .  S
C455        C456   1.364       .  D
C456        C541   1.476       .  S
C461        C462   1.519       .  S
C461        C467   1.535       .  S
C461        C465   1.540       .  S
C461        C501   1.518       .  S
C462        H469   1.087       .  S
C462        C463   1.357       .  D
C463        C464   1.545       .  S
C464        C468   1.542       .  S
C464        C466   1.543       .  S
C464        H470   1.111       .  S
C465        H471   1.085       .  S
C465        C466   1.366       .  D
C466        C571   1.487       .  S
C467        H472   1.086       .  S
C467        C468   1.367       .  D
C468        C518   1.476       .  S
N473        N474   1.320   1_554  A
N473        C477   1.341   1_554  A
N473       Cu481   2.053       .  S
N474        C475   1.340       .  A
N474       Cu480   2.051   1_556  S
C475        C476   1.381       .  A
C475        H478   1.082       .  S
C476        C508   1.467       .  S
C476        C477   1.381       .  A
C477        H479   1.082   1_556  S
Cu480       N483   2.050       .  S
Cu481       N491   2.052       .  S
Cu482       N484   2.051       .  S
Cu482       N490   2.052       .  S
N483        N484   1.322       .  A
N483        C487   1.341       .  A
N484        C485   1.340       .  A
C485        C486   1.376       .  A
C485        H488   1.082       .  S
C486        C487   1.377       .  A
C487        H489   1.082       .  S
N490        N491   1.320       .  A
N490        C494   1.343       .  A
N491        C492   1.339       .  A
C492        C493   1.380       .  A
C492        H495   1.082       .  S
C493        C498   1.466       .  S
C493        C494   1.382       .  A
C494        H496   1.082       .  S
C497        C498   1.398       .  A
C497        C502   1.391       .  A
C497        H504   1.084       .  S
C498        C499   1.402       .  A
C499        C500   1.394       .  A
C499        F506   1.357       .  S
C500        C501   1.411       .  A
C500        H505   1.082       .  S
C501        C502   1.413       .  A
C502        F503   1.356       .  S
C507        C508   1.399       .  A
C507        C512   1.391   1_545  A
C507        H514   1.083   1_545  S
C508        C509   1.402       .  A
C509        C510   1.393       .  A
C509        F516   1.357       .  S
C510        C511   1.409   1_545  A
C510        H515   1.075       .  S
C511        C512   1.412       .  A
C512        F513   1.359       .  S
C517        C518   1.402       .  A
C517        C522   1.398       .  A
C517        H524   1.083       .  S
C518        C519   1.405       .  A
C519        C520   1.396       .  A
C519        F526   1.358       .  S
C520        C521   1.403       .  A
C520        H525   1.084       .  S
C521        C522   1.405       .  A
C522        F523   1.353       .  S
C527        C528   1.410       .  A
C527        C532   1.393       .  A
C527        H534   1.076       .  S
C528        C529   1.413       .  A
C529        C530   1.393       .  A
C529        F536   1.358       .  S
C530        C531   1.399       .  A
C530        H535   1.083       .  S
C531        C532   1.403       .  A
C532        F533   1.358       .  S
C537        C538   1.399       .  A
C537        C542   1.390       .  A
C537        H544   1.084       .  S
C538        C539   1.406       .  A
C539        C540   1.405       .  A
C539        F546   1.357       .  S
C540        C541   1.404       .  A
C540        H545   1.083       .  S
C541        C542   1.405       .  A
C542        F543   1.358       .  S
C547        C548   1.393       .  A
C547        C552   1.393       .  A
C547        H554   1.084       .  S
C548        C549   1.401       .  A
C549        C550   1.394       .  A
C549        F556   1.358       .  S
C550        C551   1.408       .  A
C550        H555   1.077       .  S
C551        C552   1.416       .  A
C552        F553   1.358       .  S
C557        C558   1.400       .  A
C557        C562   1.385   1_455  A
C557        H564   1.083       .  S
C558        C559   1.406       .  A
C559        C560   1.380   1_455  A
C559        F566   1.358       .  S
C560        C561   1.399       .  A
C560        H565   1.083       .  S
C561        C562   1.406       .  A
C562        F563   1.358   1_545  S
C567        C568   1.404       .  A
C567        C572   1.395   1_655  A
C567        H574   1.084       .  S
C568        C569   1.408       .  A
C569        C570   1.409   1_655  A
C569        F576   1.357       .  S
C570        C571   1.407       .  A
C570        H575   1.083       .  S
C571        C572   1.405       .  A
C572        F573   1.358       .  S
C577        C578   1.407       .  A
C577        C582   1.390       .  A
C577        H584   1.081       .  S
C578        C579   1.415       .  A
C579        C580   1.393       .  A
C579        F586   1.357       .  S
C580        C581   1.400       .  A
C580        H585   1.083       .  S
C581        C582   1.402       .  A
C582        F583   1.357       .  S
C587        C588   1.407       .  A
C587        C592   1.405   1_655  A
C587        H594   1.083       .  S
C588        C589   1.407   1_565  A
C589        C590   1.399   1_655  A
C589        F596   1.357       .  S
C590        C591   1.405   1_545  A
C590        H595   1.083       .  S
C591        C592   1.407       .  A
C592        F593   1.356       .  S
C597        C598   1.403   1_565  A
C597        C602   1.397       .  A
C597        H604   1.083       .  S
C598        C599   1.401       .  A
C599        C600   1.390       .  A
C599        F606   1.358       .  S
C600        C601   1.411   1_545  A
C600        H605   1.076       .  S
C601        C602   1.412       .  A
C602        F603   1.358       .  S
C607        C608   1.408       .  A
C607        C612   1.396       .  A
C607        H614   1.082       .  S
C608        C609   1.413       .  A
C609        C610   1.401   1_655  A
C609        F616   1.352       .  S
C610        C611   1.403       .  A
C610        H615   1.078       .  S
C611        C612   1.410   1_455  A
C612        F613   1.357   1_655  S
C617        C618   1.402       .  A
C617        C622   1.397       .  A
C617        H624   1.078       .  S
C618        C619   1.405       .  A
C619        C620   1.396       .  A
C619        F626   1.357       .  S
C620        C621   1.404       .  A
C620        H625   1.084       .  S
C621        C622   1.404       .  A
C622        F623   1.356       .  S
C627        C628   1.403       .  A
C627        C632   1.394       .  A
C627        H634   1.083       .  S
C628        C629   1.403       .  A
C629        C630   1.397       .  A
C629        F636   1.357       .  S
C630        C631   1.413       .  A
C630        H635   1.075       .  S
C631        C632   1.411       .  A
C632        F633   1.358       .  S
C637        C638   1.406       .  A
C637        C642   1.406   1_655  A
C637        H644   1.083       .  S
C638        C639   1.406       .  A
C639        C640   1.398   1_655  A
C639        F646   1.357       .  S
C640        C641   1.407       .  A
C640        H645   1.083       .  S
C641        C642   1.409       .  A
C642        F643   1.356       .  S
C647        C648   1.403       .  A
C647        C652   1.401       .  A
C647        H654   1.083       .  S
C648        C649   1.403       .  A
C649        C650   1.390       .  A
C649        F656   1.358       .  S
C650        C651   1.400       .  A
C650        H655   1.084       .  S
C651        C652   1.403       .  A
C652        F653   1.357       .  S
C657        C658   1.410       .  A
C657        C662   1.399       .  A
C657        H664   1.078       .  S
C658        C659   1.412       .  A
C659        C660   1.390       .  A
C659        F666   1.358       .  S
C660        C661   1.400       .  A
C660        H665   1.083       .  S
C661        C662   1.403       .  A
C662        F663   1.357       .  S
C667        C668   1.403       .  A
C667        C672   1.392   1_455  A
C667        H674   1.083       .  S
C668        C669   1.403       .  A
C669        C670   1.384   1_455  A
C669        F676   1.358       .  S
C670        C671   1.401       .  A
C670        H675   1.084       .  S
C671        C672   1.404       .  A
C672        F673   1.357       .  S
C677        C678   1.411       .  A
C677        C682   1.394       .  A
C677        H684   1.078       .  S
C678        C679   1.413       .  A
C679        C680   1.391       .  A
C679        F686   1.358       .  S
C680        C681   1.396       .  A
C680        H685   1.084       .  S
C681        C682   1.400       .  A
C682        F683   1.358       .  S
C687        C688   1.410       .  A
C687        C692   1.394       .  A
C687        H694   1.076       .  S
C688        C689   1.412       .  A
C689        C690   1.390       .  A
C689        F696   1.358       .  S
C690        C691   1.399       .  A
C690        H695   1.083       .  S
C691        C692   1.402       .  A
C692        F693   1.358       .  S
C697        C698   1.402       .  A
C697        C702   1.397       .  A
C697        H704   1.083       .  S
C698        C699   1.405       .  A
C699        C700   1.394       .  A
C699        F706   1.358       .  S
C700        C701   1.402       .  A
C700        H705   1.083       .  S
C701        C702   1.406       .  A
C702        F703   1.357       .  S
C707        C708   1.411       .  A
C707        C712   1.396       .  A
C707        H714   1.080       .  S
C708        C709   1.414       .  A
C709        C710   1.390       .  A
C709        F716   1.357       .  S
C710        C711   1.397       .  A
C710        H715   1.084       .  S
C711        C712   1.402       .  A
C712        F713   1.358       .  S
C717        C718   1.403       .  A
C717        C722   1.400       .  A
C717        H724   1.082       .  S
C718        C719   1.407       .  A
C719        C720   1.394       .  A
C719        F726   1.358       .  S
C720        C721   1.403       .  A
C720        H725   1.083       .  S
C721        C722   1.408       .  A
C722        F723   1.357       .  S
C727        C728   1.409       .  A
C727        C732   1.396       .  A
C727        H734   1.077       .  S
C728        C729   1.411       .  A
C729        C730   1.388       .  A
C729        F736   1.359   1_545  S
C730        C731   1.400       .  A
C730        H735   1.082       .  S
C731        C732   1.405       .  A
C732        F733   1.357       .  S
C737        C738   1.400       .  A
C737        C742   1.384       .  A
C737        H744   1.083       .  S
C738        C739   1.403       .  A
C739        C740   1.376       .  A
C739        F746   1.358   1_545  S
C740        C741   1.399       .  A
C740        H745   1.084       .  S
C741        C742   1.403       .  A
C742        F743   1.358       .  S
C747        C748   1.403       .  A
C747        C752   1.395       .  A
C747        H754   1.084       .  S
C748        C749   1.408       .  A
C749        C750   1.409       .  A
C749        F756   1.356       .  S
C750        C751   1.408       .  A
C750        H755   1.083       .  S
C751        C752   1.409       .  A
C752        F753   1.358       .  S
C757        C758   1.401       .  A
C757        C762   1.395       .  A
C757        H764   1.083       .  S
C758        C759   1.401       .  A
C759        C760   1.390       .  A
C759        F766   1.357       .  S
C760        C761   1.411       .  A
C760        H765   1.074       .  S
C761        C762   1.412       .  A
C762        F763   1.358       .  S
C767        C768   1.402       .  A
C767        C772   1.400       .  A
C767        H774   1.083       .  S
C768        C769   1.406   1_565  A
C769        C770   1.405       .  A
C769        F776   1.356       .  S
C770        C771   1.405   1_545  A
C770        H775   1.083       .  S
C771        C772   1.406       .  A
C772        F773   1.356       .  S
C777        C778   1.409       .  A
C777        C782   1.397       .  A
C777        H784   1.078       .  S
C778        C779   1.412       .  A
C779        C780   1.391       .  A
C779        F786   1.358   1_545  S
C780        C781   1.401       .  A
C780        H785   1.082       .  S
C781        C782   1.406       .  A
C782        F783   1.357       .  S
C787        C788   1.407       .  A
C787        C792   1.412       .  A
C787        H794   1.083       .  S
C788        C789   1.409       .  A
C789        C790   1.395       .  A
C789        F796   1.358       .  S
C790        C791   1.404       .  A
C790        H795   1.083       .  S
C791        C792   1.410       .  A
C792        F793   1.356       .  S
C797        C798   1.404       .  A
C797        C802   1.399       .  A
C797        H804   1.083       .  S
C798        C799   1.406       .  A
C799        C800   1.394       .  A
C799        F806   1.358       .  S
C800        C801   1.402       .  A
C800        H805   1.084       .  S
C801        C802   1.405       .  A
C802        F803   1.357       .  S
C807        C808   1.403       .  A
C807        C812   1.393       .  A
C807        H814   1.081       .  S
C808        C809   1.407       .  A
C809        C810   1.394       .  A
C809        F816   1.356       .  S
C810        C811   1.409       .  A
C810        H815   1.076       .  S
C811        C812   1.412       .  A
C812        F813   1.358       .  S
C817        C818   1.402       .  A
C817        C822   1.394       .  A
C817        H824   1.084       .  S
C818        C819   1.405       .  A
C819        C820   1.409       .  A
C819        F826   1.353       .  S
C820        C821   1.406       .  A
C820        H825   1.083       .  S
C821        C822   1.408       .  A
C822        F823   1.358       .  S
C827        C828   1.405       .  A
C827        C832   1.395       .  A
C827        H834   1.083       .  S
C828        C829   1.410       .  A
C829        C830   1.401       .  A
C829        F836   1.356       .  S
C830        C831   1.402       .  A
C830        H835   1.082       .  S
C831        C832   1.404       .  A
C832        F833   1.358       .  S
C837        C838   1.410       .  A
C837        C842   1.392       .  A
C837        H844   1.075       .  S
C838        C839   1.412       .  A
C839        C840   1.395       .  A
C839        F846   1.358       .  S
C840        C841   1.402       .  A
C840        H845   1.082       .  S
C841        C842   1.404       .  A
C842        F843   1.357       .  S
C847        C848   1.399       .  A
C847        C852   1.378       .  A
C847        H854   1.084   1_554  S
C848        C849   1.404       .  A
C849        C850   1.385       .  A
C849        F856   1.357       .  S
C850        C851   1.400       .  A
C850        H855   1.083       .  S
C851        C852   1.405       .  A
C852        F853   1.359   1_554  S
