geometry optimzed in LAMMPS
_audit_creation_date              2020-12-01 
_audit_creation_method            'lammps2cif' 
_symmetry_space_group_name_H-M    'P1' 
_symmetry_Int_Tables_number       1 
_symmetry_cell_setting            triclinic 
loop_ 
_symmetry_equiv_pos_as_xyz 
  x,y,z 
_cell_length_a                    31.46752234 
_cell_length_b                    31.468597302993732 
_cell_length_c                    34.09193038513684 
_cell_angle_alpha                 90.00065146541056 
_cell_angle_beta                  90.00319285299324 
_cell_angle_gamma                 89.99780969973997 
loop_ 
_atom_site_label 
_atom_site_type_symbol 
_atom_site_fract_x 
_atom_site_fract_y 
_atom_site_fract_z 
_atom_site_charge 
N1          N  0.00797294  0.76145048  0.32513404    -0.01500
C2          C  0.00167002  0.71909144  0.32176337     0.01100
C3          C  0.99553991  0.70099811  0.02491177    -0.21800
C4          C  0.99834063  0.73346851  0.05182844    -0.22000
C5          C  0.00605591  0.77002358  0.03066342     0.01000
H6          H  0.99122522  0.66759581  0.03138690     0.14800
H7          H  0.99635012  0.73050290  0.08340885     0.14800
N8          N  0.09859016  0.22449285  0.03860615    -0.01500
C9          C  0.10448079  0.26697373  0.04118090     0.01100
C10         C  0.11352741  0.28393288  0.00474602    -0.21800
C11         C  0.11301402  0.25059590  0.31197880    -0.22000
C12         C  0.10358311  0.21474563  0.00024877     0.01000
H13         H  0.11823642  0.31713547  0.33098431     0.14800
H14         H  0.11726455  0.25257951  0.28052066     0.14800
N15         N  0.78382196  0.95177066  0.32529078    -0.01500
C16         C  0.82617885  0.94560593  0.32179068     0.01100
C17         C  0.84439574  0.93937793  0.02486761    -0.21800
C18         C  0.81199382  0.94195745  0.05187540    -0.22000
C19         C  0.77535545  0.94968091  0.03082946     0.01000
H20         H  0.87783247  0.93514153  0.03123767     0.14800
H21         H  0.81507507  0.93990949  0.08344317     0.14800
N22         N  0.32095945  0.04150655  0.03930286    -0.01500
C23         C  0.27858310  0.04793870  0.04193593     0.01100
C24         C  0.26162111  0.05716123  0.00555010    -0.21800
C25         C  0.29486559  0.05615104  0.31271106    -0.22000
C26         C  0.33066091  0.04630307  0.00090684     0.01000
H27         H  0.22845501  0.06226584  0.33186751     0.14800
H28         H  0.29285291  0.06044015  0.28125995     0.14800
N29         N  0.59299769  0.72734141  0.32528292    -0.01500
C30         C  0.59924276  0.76966346  0.32152281     0.01100
C31         C  0.60547464  0.78813629  0.02448783    -0.21800
C32         C  0.60285645  0.75594118  0.05169173    -0.22000
C33         C  0.59508715  0.71916704  0.03088158     0.01000
H34         H  0.60979220  0.82160556  0.03065249     0.14800
H35         H  0.60494927  0.75923768  0.08323797     0.14800
N36         N  0.50370169  0.26448361  0.03907882    -0.01500
C37         C  0.49731811  0.22211611  0.04194446     0.01100
C38         C  0.48797550  0.20500880  0.00564238    -0.21800
C39         C  0.48885423  0.23814552  0.31265787    -0.22000
C40         C  0.49875241  0.27404290  0.00067671     0.01000
H41         H  0.48282263  0.17181765  0.33210971     0.14800
H42         H  0.48445054  0.23598872  0.28122914     0.14800
N43         N  0.28098089  0.44679717  0.03879706    -0.01500
C44         C  0.32342621  0.44080086  0.04168784     0.01100
C45         C  0.34077949  0.43240556  0.00528493    -0.21800
C46         C  0.30774678  0.43347853  0.31220345    -0.22000
C47         C  0.27164316  0.44250574  0.00026231     0.01000
H48         H  0.37405866  0.42779380  0.33177397     0.14800
H49         H  0.31008117  0.42972898  0.28071245     0.14800
N50         N  0.81802549  0.53754674  0.32495726    -0.01500
C51         C  0.77574564  0.54403294  0.32114547     0.01100
C52         C  0.75731732  0.55068770  0.02406684    -0.21800
C53         C  0.78949761  0.54802053  0.05130139    -0.22000
C54         C  0.82622547  0.53981540  0.03054203     0.01000
H55         H  0.72387456  0.55528442  0.03019227     0.14800
H56         H  0.78620666  0.55038582  0.08283170     0.14800
Zr57       Zr  0.60535100  0.55898014  0.17916397     2.17500
O58         O  0.67289501  0.58286076  0.15179604    -0.49400
O59         O  0.59688949  0.62077845  0.22219088    -0.72600
O60         O  0.59638029  0.60937457  0.12541543    -0.79400
O61         O  0.66131965  0.49268464  0.25622911    -0.81100
O62         O  0.53767328  0.59153578  0.08992801    -0.76700
O63         O  0.66970575  0.55141709  0.21793588    -0.88400
O64         O  0.53563375  0.61230772  0.25671046    -0.74300
O65         O  0.53085492  0.57186751  0.17547664    -0.83800
O66         O  0.57655009  0.53393538  0.23948073    -0.83500
O67         O  0.58116883  0.51878178  0.12333116    -0.70300
O68         O  0.62288289  0.48461764  0.18267817    -0.82400
Zr69       Zr  0.49266667  0.43213283  0.18549563     2.26400
Zr70       Zr  0.50585005  0.53012680  0.12137861     2.06300
Zr71       Zr  0.59285035  0.45997898  0.24273477     2.10000
Zr72       Zr  0.50229661  0.54675691  0.23561736     1.78800
O73         O  0.64467564  0.40258666  0.24425415    -0.91200
O74         O  0.45020415  0.60034447  0.21692900    -0.39000
O75         O  0.51787776  0.47235585  0.24070707    -0.75600
O76         O  0.47520184  0.50650493  0.18178780    -0.94300
O77         O  0.52169231  0.45635241  0.12521334    -0.87600
O78         O  0.56722358  0.41909875  0.18872416    -0.90500
C79         C  0.56974282  0.63248070  0.24822443     1.03300
C80         C  0.68234514  0.52508032  0.24416705     1.16200
C81         C  0.57050405  0.61451022  0.09668056     1.07000
O82         O  0.45217104  0.58383452  0.10777444    -0.92600
O83         O  0.43735464  0.49761126  0.10723436    -0.88400
O84         O  0.43103189  0.43653358  0.14271444    -0.81500
C85         C  0.41763784  0.46366431  0.11751082     1.13600
O86         O  0.66459029  0.46252859  0.09994327    -0.94600
Zr87       Zr  0.59597510  0.44423851  0.12859111     1.88900
O88         O  0.50082233  0.37002266  0.14281966    -0.71300
O89         O  0.51145266  0.50652007  0.05374173    -0.50500
O90         O  0.58814420  0.44499764  0.05773121    -0.95200
O91         O  0.64970211  0.38986922  0.14012756    -0.52400
O92         O  0.56220567  0.37854572  0.10840237    -0.71800
C93         C  0.52807390  0.35836258  0.11682710     1.00600
O94         O  0.42623541  0.41348825  0.21855275    -0.60600
O95         O  0.59681344  0.47114944  0.31324013    -0.55400
O96         O  0.50119662  0.38113355  0.23840139    -0.92100
O97         O  0.55681754  0.40240520  0.27648689    -0.90500
O98         O  0.50283243  0.54638650  0.30677187    -0.90900
O99         O  0.43395658  0.53113311  0.26593210    -0.89600
C100        C  0.52513354  0.37818582  0.26874904     1.19400
H101        H  0.58909302  0.54833552  0.26164934     0.35400
H102        H  0.44474987  0.51024969  0.18145627     0.46200
H103        H  0.57296227  0.38920127  0.19243842     0.39700
H104        H  0.59439645  0.52917687  0.09963410     0.36200
H105        H  0.44592346  0.61749631  0.24095214     0.28000
H106        H  0.48519710  0.51741766  0.04134150     0.33900
H107        H  0.60057210  0.41775789  0.04877069     0.39900
H108        H  0.49034695  0.57401916  0.31454749     0.34300
H109        H  0.62613897  0.46288180  0.32050184     0.33200
H110        H  0.65170726  0.39914901  0.27238723     0.34900
H111        H  0.65026957  0.37296104  0.11562969     0.33800
H112        H  0.43204331  0.49973047  0.26577673     0.37800
H113        H  0.43169867  0.41765609  0.24689435     0.30600
H114        H  0.67221582  0.61429400  0.15295238     0.34800
H115        H  0.66967988  0.44145789  0.07889589     0.37700
H116        H  0.59598953  0.50231671  0.31702172     0.30300
H117        H  0.40607209  0.43662553  0.21212101     0.43100
H118        H  0.43399314  0.58411149  0.13147628     0.33200
H119        H  0.46546737  0.61960852  0.19879647     0.40800
H120        H  0.63721273  0.37046003  0.15982916     0.32700
H121        H  0.53472274  0.52372843  0.04238057     0.32700
H122        H  0.67169462  0.57578651  0.12350350     0.33000
Zr123      Zr  0.61553143  0.93991789  0.17915954     2.17500
O124        O  0.64010685  0.87243250  0.15220939    -0.49400
O125        O  0.67734998  0.94790884  0.22218337    -0.72600
O126        O  0.66535325  0.94887233  0.12489948    -0.79400
O127        O  0.54890265  0.88418672  0.25663085    -0.81100
O128        O  0.64736064  0.00737004  0.08919266    -0.76700
O129        O  0.60751066  0.87567703  0.21818369    -0.88400
O130        O  0.66964699  0.00974695  0.25593517    -0.74300
O131        O  0.62863557  0.01442505  0.17515943    -0.83800
O132        O  0.59085797  0.96891895  0.23948494    -0.83500
O133        O  0.57490188  0.96398490  0.12353910    -0.70300
O134        O  0.54119691  0.92246627  0.18314466    -0.82400
Zr135      Zr  0.48885553  0.05279007  0.18572502     2.26400
Zr136      Zr  0.58641520  0.03928928  0.12124878     2.06300
Zr137      Zr  0.51685291  0.95282494  0.24316671     2.10000
Zr138      Zr  0.60381553  0.04307472  0.23541096     1.78800
O139        O  0.45916234  0.90131793  0.24446477    -0.91200
O140        O  0.65710227  0.09595286  0.21795857    -0.39000
O141        O  0.52936062  0.02775902  0.24084920    -0.75600
O142        O  0.56325405  0.07007775  0.18170511    -0.94300
O143        O  0.51266988  0.02333869  0.12546816    -0.87600
O144        O  0.47572817  0.97829096  0.18929655    -0.90500
C145        C  0.68943195  0.97529700  0.24783470     1.03300
C146        C  0.58118975  0.86309295  0.24447748     1.16200
C147        C  0.67034946  0.97456820  0.09600424     1.07000
O148        O  0.63941040  0.09374990  0.10774933    -0.92600
O149        O  0.55397736  0.10772856  0.10695733    -0.88400
O150        O  0.49330372  0.11445135  0.14294272    -0.81500
C151        C  0.52027241  0.12766329  0.11750508     1.13600
O152        O  0.51892353  0.88022719  0.10106516    -0.94600
Zr153      Zr  0.50038822  0.94904409  0.12922379     1.88900
O154        O  0.42653724  0.04472131  0.14319022    -0.71300
O155        O  0.56253075  0.03384341  0.05369791    -0.50500
O156        O  0.50061252  0.95539674  0.05820764    -0.95200
O157        O  0.44656852  0.89510038  0.14226445    -0.52400
O158        O  0.43436615  0.98274404  0.10950754    -0.71800
C159        C  0.41448687  0.01717999  0.11758652     1.00600
O160        O  0.47101372  0.11956786  0.21851953    -0.60600
O161        O  0.52887951  0.94885809  0.31358938    -0.55400
O162        O  0.43802794  0.04438065  0.23885765    -0.92100
O163        O  0.45914470  0.98861471  0.27684644    -0.90500
O164        O  0.60324356  0.04143196  0.30653344    -0.90900
O165        O  0.58845480  0.11123228  0.26614357    -0.89600
C166        C  0.43497417  0.02033318  0.26913469     1.19400
H167        H  0.60536264  0.95641216  0.26161152     0.35400
H168        H  0.56705356  0.10052128  0.18129084     0.46200
H169        H  0.44584222  0.97264562  0.19319209     0.39700
H170        H  0.58512538  0.95067490  0.09981948     0.36200
H171        H  0.67419481  0.09971221  0.24209654     0.28000
H172        H  0.57473418  0.05934674  0.04100997     0.33900
H173        H  0.47264653  0.94427610  0.04970465     0.39900
H174        H  0.63100151  0.05348438  0.31450675     0.34300
H175        H  0.51944642  0.91995214  0.32106504     0.33200
H176        H  0.45503399  0.89486243  0.27263342     0.34900
H177        H  0.42940280  0.89382546  0.11794343     0.33800
H178        H  0.55705684  0.11237020  0.26768801     0.37800
H179        H  0.47418368  0.11395044  0.24694278     0.30600
H180        H  0.67154364  0.87373123  0.15264495     0.34800
H181        H  0.49698715  0.87418863  0.08100650     0.37700
H182        H  0.56010462  0.94830076  0.31700840     0.30300
H183        H  0.49491418  0.13905542  0.21271359     0.43100
H184        H  0.64022046  0.11125617  0.13187224     0.33200
H185        H  0.67645763  0.08122674  0.19953306     0.40800
H186        H  0.42723884  0.90782626  0.16190276     0.32700
H187        H  0.57855464  0.00959101  0.04260950     0.32700
H188        H  0.63225990  0.87302908  0.12407487     0.33000
Zr189      Zr  0.99607706  0.93003211  0.17902087     2.17500
O190        O  0.92830756  0.90579535  0.15244769    -0.49400
O191        O  0.00427380  0.86806493  0.22195411    -0.72600
O192        O  0.00470301  0.88031987  0.12458629    -0.79400
O193        O  0.94124508  0.99594780  0.25719415    -0.81100
O194        O  0.06315528  0.89826130  0.08881329    -0.76700
O195        O  0.93191200  0.93801330  0.21806368    -0.88400
O196        O  0.06590373  0.87577808  0.25605046    -0.74300
O197        O  0.07050081  0.91680903  0.17484428    -0.83800
O198        O  0.02532849  0.95450547  0.23930602    -0.83500
O199        O  0.02007842  0.97082455  0.12349910    -0.70300
O200        O  0.97883005  0.00443752  0.18309031    -0.82400
Zr201      Zr  0.10938015  0.05651087  0.18526046     2.26400
Zr202      Zr  0.09530485  0.95900650  0.12092068     2.06300
Zr203      Zr  0.00953750  0.02855644  0.24303206     2.10000
Zr204      Zr  0.09945889  0.94135471  0.23505685     1.78800
O205        O  0.95732463  0.08559200  0.24473323    -0.91200
O206        O  0.15125753  0.88724102  0.21691802    -0.39000
O207        O  0.08442112  0.01587154  0.24031459    -0.75600
O208        O  0.12642324  0.98199890  0.18133168    -0.94300
O209        O  0.07960247  0.03283809  0.12510466    -0.87600
O210        O  0.03497856  0.06988458  0.18921758    -0.90500
C211        C  0.03151308  0.85596459  0.24775811     1.03300
C212        C  0.91979017  0.96399098  0.24481279     1.16200
C213        C  0.03035197  0.87530652  0.09564839     1.07000
O214        O  0.14841984  0.90484764  0.10678687    -0.92600
O215        O  0.16402659  0.99093680  0.10671249    -0.88400
O216        O  0.17093229  0.05169639  0.14254907    -0.81500
C217        C  0.18403614  0.02463253  0.11718514     1.13600
O218        O  0.93631978  0.02759515  0.10113528    -0.94600
Zr219      Zr  0.00533983  0.04540545  0.12923505     1.88900
O220        O  0.10143861  0.11847011  0.14211924    -0.71300
O221        O  0.08916802  0.98309208  0.05346226    -0.50500
O222        O  0.00999778  0.04469897  0.05812589    -0.95200
O223        O  0.95205386  0.09956443  0.14353479    -0.52400
O224        O  0.03926506  0.11101851  0.10868749    -0.71800
C225        C  0.07389738  0.13065344  0.11655500     1.00600
O226        O  0.17623547  0.07513351  0.21766521    -0.60600
O227        O  0.00714574  0.01694247  0.31353234    -0.55400
O228        O  0.10107075  0.10723812  0.23848106    -0.92100
O229        O  0.04543208  0.08621731  0.27667269    -0.90500
O230        O  0.09819273  0.94278294  0.30620666    -0.90900
O231        O  0.16801273  0.95618902  0.26529000    -0.89600
C232        C  0.07718824  0.11030125  0.26886034     1.19400
H233        H  0.01280980  0.94005599  0.26145810     0.35400
H234        H  0.15685214  0.97808589  0.18085896     0.46200
H235        H  0.02952490  0.09978690  0.19322534     0.39700
H236        H  0.00667693  0.96068371  0.09979269     0.36200
H237        H  0.15537691  0.87027418  0.24107914     0.28000
H238        H  0.11546972  0.97258813  0.04085950     0.33900
H239        H  0.99944000  0.07290592  0.04969225     0.39900
H240        H  0.11046918  0.91521104  0.31443018     0.34300
H241        H  0.97735964  0.02293059  0.32108014     0.33200
H242        H  0.95006610  0.08869280  0.27284773     0.34900
H243        H  0.95140996  0.11774765  0.11983399     0.33800
H244        H  0.16932922  0.98757646  0.26693945     0.37800
H245        H  0.17087267  0.07202933  0.24613567     0.30600
H246        H  0.92955494  0.87435656  0.15270804     0.34800
H247        H  0.92971634  0.05050452  0.08218435     0.37700
H248        H  0.01037648  0.98591562  0.31718593     0.30300
H249        H  0.19596143  0.05142999  0.21185571     0.43100
H250        H  0.16453747  0.90174811  0.13156259     0.33200
H251        H  0.13587616  0.86792279  0.19891668     0.40800
H252        H  0.96464499  0.11789992  0.16403464     0.32700
H253        H  0.06603149  0.96574537  0.04204856     0.32700
H254        H  0.92870747  0.91381128  0.12435265     0.33000
Zr255      Zr  0.98662182  0.54942828  0.17874516     2.17500
O256        O  0.96264767  0.61728982  0.15217357    -0.49400
O257        O  0.92466258  0.54137926  0.22172263    -0.72600
O258        O  0.93659580  0.54080407  0.12460552    -0.79400
O259        O  0.05239467  0.60405888  0.25713616    -0.81100
O260        O  0.95409270  0.48204149  0.08905922    -0.76700
O261        O  0.99458542  0.61348397  0.21785831    -0.88400
O262        O  0.93263305  0.47997300  0.25607730    -0.75500
O263        O  0.97336887  0.47503029  0.17451796    -0.83800
O264        O  0.01104538  0.52021241  0.23906890    -0.83500
O265        O  0.02718855  0.52548281  0.12301608    -0.70300
O266        O  0.06104446  0.56649959  0.18299344    -0.82400
Zr267      Zr  0.11281409  0.43606392  0.18514171     2.26400
Zr268      Zr  0.01546289  0.45020816  0.12051244     2.06300
Zr269      Zr  0.08510534  0.53579304  0.24300713     2.10000
Zr270      Zr  0.99781730  0.44612796  0.23477409     1.78800
O271        O  0.14206060  0.58802518  0.24587535    -0.91200
O272        O  0.94303009  0.39508743  0.21668928    -0.39000
O273        O  0.07237561  0.46088976  0.24039369    -0.75600
O274        O  0.03832210  0.41909760  0.18099410    -0.94300
O275        O  0.08923663  0.46585876  0.12493239    -0.87600
O276        O  0.12621686  0.51049080  0.18901373    -0.90500
C277        C  0.91274584  0.51427140  0.24771515     1.03300
C278        C  0.02044019  0.62551172  0.24473404     1.16200
C279        C  0.93126250  0.51495359  0.09587557     1.07000
O280        O  0.96206552  0.39682862  0.10482208    -0.92600
O281        O  0.04752261  0.38149945  0.10631112    -0.88400
O282        O  0.10829889  0.37463994  0.14213777    -0.81500
C283        C  0.08127693  0.36152938  0.11671295     1.13600
O284        O  0.08434443  0.60972112  0.10184721    -0.94600
Zr285      Zr  0.10180293  0.54009693  0.12897305     1.88900
O286        O  0.17512659  0.44396651  0.14258442    -0.71300
O287        O  0.04040828  0.45710009  0.05336713    -0.50500
O288        O  0.10196917  0.53511746  0.05785075    -0.95200
O289        O  0.15644375  0.59287736  0.14310444    -0.52400
O290        O  0.16707672  0.50557177  0.10837768    -0.71800
C291        C  0.18699400  0.47120681  0.11664434     1.00600
O292        O  0.13069213  0.36938773  0.21809002    -0.60600
O293        O  0.07318866  0.53815375  0.31350158    -0.55400
O294        O  0.16385246  0.44395525  0.23816079    -0.92100
O295        O  0.14297671  0.49969170  0.27628581    -0.90500
O296        O  0.99898706  0.44754119  0.30594247    -0.90900
O297        O  0.01106627  0.37684880  0.26415764    -0.89600
C298        C  0.16705390  0.46791878  0.26847938     1.19400
H299        H  0.99661566  0.53277589  0.26120973     0.35400
H300        H  0.03439254  0.38867193  0.18049939     0.46200
H301        H  0.15612196  0.51593568  0.19300395     0.39700
H302        H  0.01699384  0.53889380  0.09932952     0.36200
H303        H  0.92584946  0.39144758  0.24078676     0.28000
H304        H  0.03052626  0.43072404  0.04046884     0.33900
H305        H  0.12963158  0.54717329  0.04958657     0.39900
H306        H  0.97196610  0.43403642  0.31408721     0.34300
H307        H  0.07816938  0.56813218  0.32102702     0.33200
H308        H  0.14505660  0.59463144  0.27414024     0.34900
H309        H  0.17277011  0.59545177  0.11838607     0.33800
H310        H  0.04229303  0.37560961  0.26751884     0.37800
H311        H  0.12635558  0.37482242  0.24641479     0.30600
H312        H  0.93121678  0.61648720  0.15333454     0.34800
H313        H  0.10546684  0.61519384  0.08092777     0.37700
H314        H  0.04227684  0.53390731  0.31709240     0.30300
H315        H  0.10741500  0.34945861  0.21147252     0.43100
H316        H  0.95819825  0.38071130  0.12950580     0.33200
H317        H  0.92407187  0.41060853  0.19846652     0.40800
H318        H  0.17638433  0.57896676  0.16149770     0.32700
H319        H  0.02281842  0.48001216  0.04188912     0.32700
H320        H  0.96970402  0.61647834  0.12386842     0.33000
C321        C  0.89694900  0.52363478  0.06932830    -0.11300
C322        C  0.86636807  0.53117577  0.04918906    -0.12900
C323        C  0.87564741  0.52356082  0.27104118    -0.11300
C324        C  0.84786747  0.52997879  0.29488379    -0.12900
C325        C  0.75094417  0.53892666  0.28599830    -0.11300
C326        C  0.72220331  0.53322534  0.26321306    -0.12900
C327        C  0.20063161  0.45863460  0.29555137    -0.11300
C328        C  0.23116687  0.45088155  0.31561379    -0.12900
C329        C  0.22421625  0.46205210  0.09329314    -0.11300
C330        C  0.25181333  0.45527555  0.06928942    -0.12900
C331        C  0.34926294  0.44793099  0.07581940    -0.11300
C332        C  0.37825314  0.45483739  0.09799915    -0.12900
C333        C  0.51157246  0.16710589  0.09806185    -0.11300
C334        C  0.50471357  0.19614354  0.07593173    -0.12900
C335        C  0.50761718  0.31440116  0.31604186    -0.11300
C336        C  0.51577971  0.34480385  0.29597005    -0.12900
C337        C  0.51919260  0.32107160  0.09358178    -0.11300
C338        C  0.51245698  0.29350915  0.06957845    -0.12900
C339        C  0.58916164  0.82318943  0.26348544    -0.11300
C340        C  0.59451320  0.79443070  0.28631796    -0.12900
C341        C  0.58658918  0.67902661  0.04954518    -0.11300
C342        C  0.57912577  0.64863601  0.06993496    -0.12900
C343        C  0.57884704  0.66968442  0.27145098    -0.11300
C344        C  0.58536865  0.69751071  0.29521646    -0.12900
C345        C  0.22342034  0.03331303  0.09774712    -0.11300
C346        C  0.25246347  0.04041611  0.07573939    -0.12900
C347        C  0.37108362  0.03749549  0.31640938    -0.11300
C348        C  0.40151455  0.02953659  0.29631167    -0.12900
C349        C  0.34980643  0.03282270  0.07001689    -0.11300
C350        C  0.37720014  0.02611344  0.09424220    -0.12900
C351        C  0.85118009  0.95053484  0.28675241    -0.11300
C352        C  0.87997607  0.95601697  0.26398696    -0.12900
C353        C  0.73505988  0.95825090  0.04918702    -0.11300
C354        C  0.70447143  0.96583163  0.06928609    -0.12900
C355        C  0.72654736  0.96606393  0.27114482    -0.11300
C356        C  0.75421301  0.95945383  0.29505009    -0.12900
C357        C  0.08666024  0.14372163  0.29598273    -0.11300
C358        C  0.09486676  0.17424734  0.31586152    -0.12900
C359        C  0.08982986  0.19552612  0.06920455    -0.11300
C360        C  0.08298564  0.16791741  0.09319497    -0.12900
C361        C  0.09002020  0.32217766  0.09712112    -0.11300
C362        C  0.09699189  0.29312529  0.07503305    -0.12900
C363        C  0.02168328  0.84113300  0.06895586    -0.11300
C364        C  0.01439063  0.81044208  0.04889277    -0.12900
C365        C  0.01558048  0.79101400  0.29481955    -0.11300
C366        C  0.02218310  0.81875697  0.27096689    -0.12900
C367        C  0.00657514  0.69395382  0.28680776    -0.11300
C368        C  0.01225362  0.66519553  0.26404475    -0.12900
N369        N  0.00797300  0.76145044  0.65846743    -0.01500
C370        C  0.00166987  0.71909143  0.65509671     0.01100
C371        C  0.99554005  0.70099804  0.35824528    -0.21800
C372        C  0.99834066  0.73346848  0.38516190    -0.22000
C373        C  0.00605579  0.77002357  0.36399685     0.01000
H374        H  0.99122549  0.66759572  0.36472042     0.14800
H375        H  0.99635023  0.73050290  0.41674231     0.14800
N376        N  0.09859045  0.22449278  0.37193963    -0.01500
C377        C  0.10448120  0.26697367  0.37451432     0.01100
C378        C  0.11352754  0.28393281  0.33807937    -0.21800
C379        C  0.11301384  0.25059616  0.64531193    -0.22000
C380        C  0.10358300  0.21474556  0.33358220     0.01000
H381        H  0.11823630  0.31713570  0.66431745     0.14800
H382        H  0.11726450  0.25257980  0.61385380     0.14800
N383        N  0.78382183  0.95177097  0.65862415    -0.01500
C384        C  0.82617874  0.94560622  0.65512407     0.01100
C385        C  0.84439586  0.93937737  0.35820108    -0.21800
C386        C  0.81199396  0.94195709  0.38520892    -0.22000
C387        C  0.77535559  0.94968068  0.36416292     0.01000
H388        H  0.87783258  0.93514082  0.36457109     0.14800
H389        H  0.81507525  0.93990922  0.41677666     0.14800
N390        N  0.32095938  0.04150660  0.37263627    -0.01500
C391        C  0.27858303  0.04793860  0.37526930     0.01100
C392        C  0.26162104  0.05716094  0.33888347    -0.21800
C393        C  0.29486564  0.05615117  0.64604422    -0.22000
C394        C  0.33066088  0.04630317  0.33424026     0.01000
H395        H  0.22845510  0.06226627  0.66520064     0.14800
H396        H  0.29285300  0.06044042  0.61459313     0.14800
N397        N  0.59299763  0.72734139  0.65861625    -0.01500
C398        C  0.59924277  0.76966343  0.65485609     0.01100
C399        C  0.60547488  0.78813611  0.35782122    -0.21800
C400        C  0.60285705  0.75594092  0.38502500    -0.22000
C401        C  0.59508764  0.71916687  0.36421486     0.01000
H402        H  0.60979242  0.82160539  0.36398601     0.14800
H403        H  0.60495024  0.75923735  0.41657125     0.14800
N404        N  0.50370200  0.26448350  0.37241206    -0.01500
C405        C  0.49731834  0.22211601  0.37527769     0.01100
C406        C  0.48797584  0.20500869  0.33897560    -0.21800
C407        C  0.48885397  0.23814561  0.64599117    -0.22000
C408        C  0.49875280  0.27404280  0.33400995     0.01000
H409        H  0.48282234  0.17181775  0.66544303     0.14800
H410        H  0.48445020  0.23598882  0.61456245     0.14800
N411        N  0.28098077  0.44679695  0.37213047    -0.01500
C412        C  0.32342609  0.44080053  0.37502131     0.01100
C413        C  0.34077948  0.43240517  0.33861842    -0.21800
C414        C  0.30774658  0.43347885  0.64553666    -0.22000
C415        C  0.27164315  0.44250565  0.33359569     0.01000
H416        H  0.37405852  0.42779409  0.66510693     0.14800
H417        H  0.31008089  0.42972932  0.61404565     0.14800
N418        N  0.81802542  0.53754652  0.65829074    -0.01500
C419        C  0.77574555  0.54403272  0.65447889     0.01100
C420        C  0.75731712  0.55068775  0.35740027    -0.21800
C421        C  0.78949739  0.54802055  0.38463484    -0.22000
C422        C  0.82622527  0.53981555  0.36387547     0.01000
H423        H  0.72387434  0.55528437  0.36352572     0.14800
H424        H  0.78620639  0.55038571  0.41616515     0.14800
Zr425      Zr  0.60535103  0.55898010  0.51249730     2.17500
O426        O  0.67289503  0.58286046  0.48512920    -0.49400
O427        O  0.59688949  0.62077847  0.55552415    -0.72600
O428        O  0.59638047  0.60937449  0.45874874    -0.79400
O429        O  0.66131953  0.49268456  0.58956253    -0.81100
O430        O  0.53767388  0.59153541  0.42326086    -0.76700
O431        O  0.66970588  0.55141676  0.55126901    -0.88400
O432        O  0.53563360  0.61230793  0.59004355    -0.74300
O433        O  0.53085497  0.57186752  0.50880987    -0.83800
O434        O  0.57655009  0.53393533  0.57281399    -0.83500
O435        O  0.58116902  0.51878171  0.45666454    -0.70300
O436        O  0.62288294  0.48461761  0.51601160    -0.82400
Zr437      Zr  0.49266671  0.43213297  0.51882888     2.26400
Zr438      Zr  0.50585032  0.53012675  0.45471175     2.06300
Zr439      Zr  0.59285033  0.45997893  0.57606817     2.10000
Zr440      Zr  0.50229667  0.54675698  0.56895060     1.78800
O441        O  0.64467551  0.40258655  0.57758786    -0.91200
O442        O  0.45020395  0.60034429  0.55026214    -0.39000
O443        O  0.51787782  0.47235593  0.57404033    -0.75600
O444        O  0.47520193  0.50650510  0.51512094    -0.94300
O445        O  0.52169245  0.45635237  0.45854657    -0.87600
O446        O  0.56722357  0.41909875  0.52205754    -0.90500
C447        C  0.56974277  0.63248082  0.58155762     1.03300
C448        C  0.68234513  0.52508008  0.57750033     1.16200
C449        C  0.57050448  0.61450999  0.43001366     1.07000
O450        O  0.45217119  0.58383415  0.44110703    -0.92600
O451        O  0.43735507  0.49761102  0.44056725    -0.88400
O452        O  0.43103201  0.43653360  0.47604763    -0.81500
C453        C  0.41763809  0.46366420  0.45084385     1.13600
O454        O  0.66459070  0.46252856  0.43327730    -0.94600
Zr455      Zr  0.59597523  0.44423844  0.46192451     1.88900
O456        O  0.50082217  0.37002281  0.47615289    -0.71300
O457        O  0.51145342  0.50651940  0.38707511    -0.50500
O458        O  0.58814496  0.44499790  0.39106451    -0.95200
O459        O  0.64970211  0.38986891  0.47346068    -0.52400
O460        O  0.56220542  0.37854593  0.44173550    -0.71800
C461        C  0.52807368  0.35836276  0.45016025     1.00600
O462        O  0.42623547  0.41348824  0.55188593    -0.60600
O463        O  0.59681319  0.47114969  0.64657354    -0.55400
O464        O  0.50119652  0.38113361  0.57173460    -0.92100
O465        O  0.55681744  0.40240510  0.60982018    -0.90500
O466        O  0.50283225  0.54638647  0.64010516    -0.90900
O467        O  0.43395687  0.53113307  0.59926557    -0.89600
C468        C  0.52513342  0.37818578  0.60208227     1.19400
H469        H  0.58909298  0.54833549  0.59498242     0.35400
H470        H  0.44474995  0.51024999  0.51478930     0.46200
H471        H  0.57296210  0.38920124  0.52577181     0.39700
H472        H  0.59439671  0.52917681  0.43296754     0.36200
H473        H  0.44592281  0.61749588  0.57428532     0.28000
H474        H  0.48519765  0.51741639  0.37467474     0.33900
H475        H  0.60057247  0.41775799  0.38210396     0.39900
H476        H  0.49034764  0.57401951  0.64788083     0.34300
H477        H  0.62613864  0.46288216  0.65383537     0.33200
H478        H  0.65170719  0.39914917  0.60572094     0.34900
H479        H  0.65026884  0.37296023  0.44896308     0.33800
H480        H  0.43204310  0.49973047  0.59910914     0.37800
H481        H  0.43169860  0.41765641  0.58022751     0.30600
H482        H  0.67221604  0.61429364  0.48628557     0.34800
H483        H  0.66968036  0.44145805  0.41222977     0.37700
H484        H  0.59598931  0.50231702  0.65035504     0.30300
H485        H  0.40607196  0.43662525  0.54545391     0.43100
H486        H  0.43399382  0.58411195  0.46480920     0.33200
H487        H  0.46546717  0.61960867  0.53212993     0.40800
H488        H  0.63721313  0.37046023  0.49316293     0.32700
H489        H  0.53472320  0.52372801  0.37571380     0.32700
H490        H  0.67169455  0.57578628  0.45683659     0.33000
Zr491      Zr  0.61553130  0.93991769  0.51249274     2.17500
O492        O  0.64010633  0.87243217  0.48554252    -0.49400
O493        O  0.67734999  0.94790880  0.55551647    -0.72600
O494        O  0.66535313  0.94887211  0.45823266    -0.79400
O495        O  0.54890281  0.88418673  0.58996424    -0.81100
O496        O  0.64736058  0.00736983  0.42252585    -0.76700
O497        O  0.60751069  0.87567692  0.55151695    -0.88400
O498        O  0.66964688  0.00974687  0.58926832    -0.74300
O499        O  0.62863554  0.01442481  0.50849262    -0.83800
O500        O  0.59085804  0.96891885  0.57281823    -0.83500
O501        O  0.57490171  0.96398471  0.45687228    -0.70300
O502        O  0.54119675  0.92246623  0.51647795    -0.82400
Zr503      Zr  0.48885557  0.05279000  0.51905833     2.26400
Zr504      Zr  0.58641515  0.03928905  0.45458196     2.06300
Zr505      Zr  0.51685297  0.95282492  0.57650006     2.10000
Zr506      Zr  0.60381551  0.04307465  0.56874415     1.78800
O507        O  0.45916264  0.90131780  0.57779792    -0.91200
O508        O  0.65710260  0.09595253  0.55129196    -0.39000
O509        O  0.52936062  0.02775901  0.57418258    -0.75600
O510        O  0.56325412  0.07007774  0.51503825    -0.94300
O511        O  0.51266978  0.02333864  0.45880139    -0.87600
O512        O  0.47572802  0.97829085  0.52262991    -0.90500
C513        C  0.68943187  0.97529696  0.58116786     1.03300
C514        C  0.58118985  0.86309291  0.57781080     1.16200
C515        C  0.67034937  0.97456796  0.42933744     1.07000
O516        O  0.63941026  0.09374962  0.44108215    -0.92600
O517        O  0.55397752  0.10772848  0.44029065    -0.88400
O518        O  0.49330378  0.11445125  0.47627592    -0.81500
C519        C  0.52027253  0.12766320  0.45083833     1.13600
O520        O  0.51892360  0.88022723  0.43439832    -0.94600
Zr521      Zr  0.50038804  0.94904402  0.46255708     1.88900
O522        O  0.42653726  0.04472124  0.47652357    -0.71300
O523        O  0.56253078  0.03384275  0.38703107    -0.50500
O524        O  0.50061225  0.95539639  0.39154089    -0.95200
O525        O  0.44656860  0.89510008  0.47559786    -0.52400
O526        O  0.43436586  0.98274385  0.44284100    -0.71800
C527        C  0.41448673  0.01717988  0.45091995     1.00600
O528        O  0.47101355  0.11956785  0.55185267    -0.60600
O529        O  0.52887931  0.94885807  0.64692279    -0.55400
O530        O  0.43802806  0.04438058  0.57219107    -0.92100
O531        O  0.45914465  0.98861455  0.61017981    -0.90500
O532        O  0.60324365  0.04143164  0.63986669    -0.90900
O533        O  0.58845488  0.11123226  0.59947671    -0.89600
C534        C  0.43497420  0.02033306  0.60246805     1.19400
H535        H  0.60536273  0.95641213  0.59494485     0.35400
H536        H  0.56705370  0.10052146  0.51462392     0.46200
H537        H  0.44584186  0.97264541  0.52652544     0.39700
H538        H  0.58512519  0.95067466  0.43315248     0.36200
H539        H  0.67419526  0.09971161  0.57542993     0.28000
H540        H  0.57473357  0.05934640  0.37434316     0.33900
H541        H  0.47264622  0.94427585  0.38303793     0.39900
H542        H  0.63100160  0.05348405  0.64784005     0.34300
H543        H  0.51944647  0.91995202  0.65439841     0.33200
H544        H  0.45503414  0.89486244  0.60596657     0.34900
H545        H  0.42940262  0.89382536  0.45127701     0.33800
H546        H  0.55705696  0.11236975  0.60102210     0.37800
H547        H  0.47418327  0.11395049  0.58027599     0.30600
H548        H  0.67154313  0.87373082  0.48597792     0.34800
H549        H  0.49698697  0.87418835  0.41433999     0.37700
H550        H  0.56010440  0.94830105  0.65034191     0.30300
H551        H  0.49491404  0.13905537  0.54604682     0.43100
H552        H  0.64022106  0.11125536  0.46520536     0.33200
H553        H  0.67645777  0.08122643  0.53286634     0.40800
H554        H  0.42723911  0.90782574  0.49523649     0.32700
H555        H  0.57855521  0.00959078  0.37594255     0.32700
H556        H  0.63225922  0.87302876  0.45740803     0.33000
Zr557      Zr  0.99607696  0.93003209  0.51235432     2.17500
O558        O  0.92830733  0.90579554  0.48578133    -0.49400
O559        O  0.00427388  0.86806490  0.55528754    -0.72600
O560        O  0.00470307  0.88031986  0.45791975    -0.79400
O561        O  0.94124511  0.99594782  0.59052758    -0.81100
O562        O  0.06315513  0.89826140  0.42214648    -0.76700
O563        O  0.93191182  0.93801337  0.55139710    -0.88400
O564        O  0.06590383  0.87577808  0.58938386    -0.74300
O565        O  0.07050071  0.91680901  0.50817765    -0.83800
O566        O  0.02532847  0.95450535  0.57263945    -0.83500
O567        O  0.02007823  0.97082450  0.45683250    -0.70300
O568        O  0.97882989  0.00443749  0.51642376    -0.82400
Zr569      Zr  0.10938009  0.05651083  0.51859382     2.26400
Zr570      Zr  0.09530473  0.95900648  0.45425404     2.06300
Zr571      Zr  0.00953753  0.02855633  0.57636547     2.10000
Zr572      Zr  0.09945891  0.94135471  0.56839015     1.78800
O573        O  0.95732456  0.08559183  0.57806721    -0.91200
O574        O  0.15125745  0.88724095  0.55025139    -0.39000
O575        O  0.08442117  0.01587150  0.57364800    -0.75600
O576        O  0.12642335  0.98199888  0.51466495    -0.94300
O577        O  0.07960227  0.03283805  0.45843808    -0.87600
O578        O  0.03497850  0.06988450  0.52255094    -0.90500
C579        C  0.03151318  0.85596458  0.58109153     1.03300
C580        C  0.91979009  0.96399108  0.57814621     1.16200
C581        C  0.03035192  0.87530657  0.42898173     1.07000
O582        O  0.14841956  0.90484737  0.44012034    -0.92600
O583        O  0.16402639  0.99093681  0.44004559    -0.88400
O584        O  0.17093228  0.05169615  0.47588251    -0.81500
C585        C  0.18403605  0.02463242  0.45051841     1.13600
O586        O  0.93631959  0.02759544  0.43446843    -0.94600
Zr587      Zr  0.00533962  0.04540542  0.46256846     1.88900
O588        O  0.10143847  0.11847011  0.47545266    -0.71300
O589        O  0.08916808  0.98309214  0.38679566    -0.50500
O590        O  0.00999788  0.04469893  0.39145933    -0.95200
O591        O  0.95205367  0.09956437  0.47686848    -0.52400
O592        O  0.03926481  0.11101858  0.44202106    -0.71800
C593        C  0.07389717  0.13065349  0.44988850     1.00600
O594        O  0.17623524  0.07513377  0.55099866    -0.60600
O595        O  0.00714585  0.01694211  0.64686573    -0.55400
O596        O  0.10107078  0.10723804  0.57181453    -0.92100
O597        O  0.04543200  0.08621732  0.61000606    -0.90500
O598        O  0.09819283  0.94278326  0.63953996    -0.90900
O599        O  0.16801283  0.95618898  0.59862313    -0.89600
C600        C  0.07718820  0.11030122  0.60219377     1.19400
H601        H  0.01280971  0.94005582  0.59479158     0.35400
H602        H  0.15685245  0.97808586  0.51419209     0.46200
H603        H  0.02952490  0.09978683  0.52655867     0.39700
H604        H  0.00667665  0.96068364  0.43312605     0.36200
H605        H  0.15537660  0.87027401  0.57441253     0.28000
H606        H  0.11546975  0.97258804  0.37419289     0.33900
H607        H  0.99943979  0.07290575  0.38302564     0.39900
H608        H  0.11046936  0.91521143  0.64776363     0.34300
H609        H  0.97735990  0.02293081  0.65441359     0.33200
H610        H  0.95006647  0.08869281  0.60618179     0.34900
H611        H  0.95140972  0.11774766  0.45316779     0.33800
H612        H  0.16932974  0.98757646  0.60027176     0.37800
H613        H  0.17087256  0.07202892  0.57946907     0.30600
H614        H  0.92955478  0.87435679  0.48604148     0.34800
H615        H  0.92971635  0.05050484  0.41551746     0.37700
H616        H  0.01037594  0.98591516  0.65051928     0.30300
H617        H  0.19596155  0.05143065  0.54518872     0.43100
H618        H  0.16453750  0.90174811  0.46489591     0.33200
H619        H  0.13587612  0.86792288  0.53224995     0.40800
H620        H  0.96464484  0.11789984  0.49736841     0.32700
H621        H  0.06603148  0.96574561  0.37538196     0.32700
H622        H  0.92870719  0.91381163  0.45768628     0.33000
Zr623      Zr  0.98662155  0.54942814  0.51207847     2.17500
O624        O  0.96264709  0.61728965  0.48550722    -0.49400
O625        O  0.92466237  0.54137864  0.55505602    -0.72600
O626        O  0.93659544  0.54080378  0.45793887    -0.79400
O627        O  0.05239443  0.60405896  0.59046934    -0.81100
O628        O  0.95409268  0.48204134  0.42239250    -0.76700
O629        O  0.99458520  0.61348396  0.55119145    -0.88400
O630        O  0.93263300  0.47997244  0.58941072    -0.75500
O631        O  0.97336888  0.47503018  0.50785120    -0.83800
O632        O  0.01104515  0.52021245  0.57240224    -0.83500
O633        O  0.02718829  0.52548254  0.45634942    -0.70300
O634        O  0.06104416  0.56649960  0.51632669    -0.82400
Zr635      Zr  0.11281399  0.43606393  0.51847508     2.26400
Zr636      Zr  0.01546282  0.45020791  0.45384575     2.06300
Zr637      Zr  0.08510516  0.53579320  0.57634040     2.10000
Zr638      Zr  0.99781734  0.44612795  0.56810734     1.78800
O639        O  0.14206040  0.58802547  0.57920821    -0.91200
O640        O  0.94303015  0.39508737  0.55002268    -0.39000
O641        O  0.07237556  0.46088991  0.57372700    -0.75600
O642        O  0.03832209  0.41909748  0.51432740    -0.94300
O643        O  0.08923653  0.46585860  0.45826569    -0.87600
O644        O  0.12621668  0.51049083  0.52234705    -0.90500
C645        C  0.91274570  0.51427076  0.58104856     1.03300
C646        C  0.02043995  0.62551175  0.57806719     1.16200
C647        C  0.93126230  0.51495332  0.42920887     1.07000
O648        O  0.96206532  0.39682830  0.43815607    -0.92600
O649        O  0.04752265  0.38149929  0.43964444    -0.88400
O650        O  0.10829909  0.37464012  0.47547093    -0.81500
C651        C  0.08127713  0.36152943  0.45004618     1.13600
O652        O  0.08434423  0.60972096  0.43518038    -0.94600
Zr653      Zr  0.10180260  0.54009679  0.46230634     1.88900
O654        O  0.17512644  0.44396640  0.47591782    -0.71300
O655        O  0.04040777  0.45709945  0.38670026    -0.50500
O656        O  0.10196862  0.53511743  0.39118402    -0.95200
O657        O  0.15644316  0.59287753  0.47643756    -0.52400
O658        O  0.16707619  0.50557142  0.44171078    -0.71800
C659        C  0.18699363  0.47120657  0.44997754     1.00600
O660        O  0.13069098  0.36938738  0.55142319    -0.60600
O661        O  0.07318875  0.53815436  0.64683489    -0.55400
O662        O  0.16385237  0.44395529  0.57149415    -0.92100
O663        O  0.14297641  0.49969170  0.60961914    -0.90500
O664        O  0.99898812  0.44754209  0.63927563    -0.90900
O665        O  0.01106549  0.37684883  0.59749132    -0.89600
C666        C  0.16705369  0.46791883  0.60181274     1.19400
H667        H  0.99661533  0.53277591  0.59454322     0.35400
H668        H  0.03439247  0.38867179  0.51383266     0.46200
H669        H  0.15612180  0.51593576  0.52633728     0.39700
H670        H  0.01699359  0.53889345  0.43266284     0.36200
H671        H  0.92584921  0.39144797  0.57412009     0.28000
H672        H  0.03052553  0.43072335  0.37380211     0.33900
H673        H  0.12963112  0.54717301  0.38291978     0.39900
H674        H  0.97196715  0.43403766  0.64742084     0.34300
H675        H  0.07817044  0.56813269  0.65436029     0.33200
H676        H  0.14505772  0.59463056  0.60747320     0.34900
H677        H  0.17277020  0.59545111  0.45171949     0.33800
H678        H  0.04229224  0.37560914  0.60085230     0.37800
H679        H  0.12635550  0.37482232  0.57974802     0.30600
H680        H  0.93121623  0.61648682  0.48666834     0.34800
H681        H  0.10546691  0.61519379  0.41426119     0.37700
H682        H  0.04227686  0.53390892  0.65042578     0.30300
H683        H  0.10741285  0.34945906  0.54480637     0.43100
H684        H  0.95819497  0.38071401  0.46284107     0.33200
H685        H  0.92407224  0.41060827  0.53179956     0.40800
H686        H  0.17638321  0.57896754  0.49483168     0.32700
H687        H  0.02281794  0.48001153  0.37522232     0.32700
H688        H  0.96970329  0.61647825  0.45720203     0.33000
C689        C  0.89694882  0.52363445  0.40266157    -0.11300
C690        C  0.86636785  0.53117571  0.38252245    -0.12900
C691        C  0.87564726  0.52356009  0.60437466    -0.11300
C692        C  0.84786739  0.52997824  0.62821731    -0.12900
C693        C  0.75094407  0.53892632  0.61933174    -0.11300
C694        C  0.72220326  0.53322505  0.59654643    -0.12900
C695        C  0.20063140  0.45863477  0.62888478    -0.11300
C696        C  0.23116668  0.45088184  0.64894722    -0.12900
C697        C  0.22421590  0.46205189  0.42662636    -0.11300
C698        C  0.25181312  0.45527538  0.40262276    -0.12900
C699        C  0.34926285  0.44793092  0.40915283    -0.11300
C700        C  0.37825328  0.45483739  0.43133233    -0.12900
C701        C  0.51157258  0.16710579  0.43139504    -0.11300
C702        C  0.50471369  0.19614344  0.40926495    -0.12900
C703        C  0.50761697  0.31440121  0.64937515    -0.11300
C704        C  0.51577950  0.34480382  0.62930326    -0.12900
C705        C  0.51919247  0.32107169  0.42691500    -0.11300
C706        C  0.51245705  0.29350909  0.40291173    -0.12900
C707        C  0.58916168  0.82318937  0.59681871    -0.11300
C708        C  0.59451311  0.79443065  0.61965125    -0.12900
C709        C  0.58658978  0.67902642  0.38287844    -0.11300
C710        C  0.57912630  0.64863582  0.40326814    -0.12900
C711        C  0.57884707  0.66968446  0.60478423    -0.11300
C712        C  0.58536866  0.69751069  0.62854979    -0.12900
C713        C  0.22342028  0.03331295  0.43108046    -0.11300
C714        C  0.25246341  0.04041605  0.40907276    -0.12900
C715        C  0.37108359  0.03749539  0.64974260    -0.11300
C716        C  0.40151453  0.02953651  0.62964497    -0.12900
C717        C  0.34980629  0.03282270  0.40335034    -0.11300
C718        C  0.37719997  0.02611341  0.42757567    -0.12900
C719        C  0.85117997  0.95053514  0.62008582    -0.11300
C720        C  0.87997597  0.95601724  0.59732041    -0.12900
C721        C  0.73506000  0.95825082  0.38252040    -0.11300
C722        C  0.70447141  0.96583147  0.40261933    -0.12900
C723        C  0.72654723  0.96606397  0.60447811    -0.11300
C724        C  0.75421287  0.95945403  0.62838345    -0.12900
C725        C  0.08666017  0.14372169  0.62931611    -0.11300
C726        C  0.09486672  0.17424754  0.64919470    -0.12900
C727        C  0.08982993  0.19552613  0.40253803    -0.11300
C728        C  0.08298544  0.16791746  0.42652845    -0.12900
C729        C  0.09002055  0.32217773  0.43045437    -0.11300
C730        C  0.09699233  0.29312528  0.40836642    -0.12900
C731        C  0.02168313  0.84113301  0.40228925    -0.11300
C732        C  0.01439043  0.81044209  0.38222619    -0.12900
C733        C  0.01558057  0.79101397  0.62815297    -0.11300
C734        C  0.02218322  0.81875695  0.60430032    -0.12900
C735        C  0.00657491  0.69395380  0.62014104    -0.11300
C736        C  0.01225337  0.66519557  0.59737794    -0.12900
N737        N  0.00797291  0.76145055  0.99180060    -0.01500
C738        C  0.00166990  0.71909153  0.98842985     0.01100
C739        C  0.99553990  0.70099807  0.69157866    -0.21800
C740        C  0.99834073  0.73346847  0.71849531    -0.22000
C741        C  0.00605593  0.77002354  0.69733024     0.01000
H742        H  0.99122519  0.66759577  0.69805382     0.14800
H743        H  0.99635034  0.73050287  0.75007572     0.14800
N744        N  0.09859023  0.22449307  0.70527278    -0.01500
C745        C  0.10448099  0.26697393  0.70784747     0.01100
C746        C  0.11352732  0.28393302  0.67141251    -0.21800
C747        C  0.11301420  0.25059599  0.97864544    -0.22000
C748        C  0.10358282  0.21474584  0.66691535     0.01000
H749        H  0.11823633  0.31713556  0.99765099     0.14800
H750        H  0.11726492  0.25257967  0.94718732     0.14800
N751        N  0.78382178  0.95177094  0.99195734    -0.01500
C752        C  0.82617869  0.94560636  0.98845723     0.01100
C753        C  0.84439575  0.93937766  0.69153444    -0.21800
C754        C  0.81199386  0.94195739  0.71854223    -0.22000
C755        C  0.77535550  0.94968097  0.69749627     0.01000
H756        H  0.87783246  0.93514108  0.69790450     0.14800
H757        H  0.81507517  0.93990952  0.75011001     0.14800
N758        N  0.32095932  0.04150651  0.70596943    -0.01500
C759        C  0.27858301  0.04793871  0.70860245     0.01100
C760        C  0.26162110  0.05716120  0.67221662    -0.21800
C761        C  0.29486566  0.05615122  0.97937767    -0.22000
C762        C  0.33066084  0.04630302  0.66757343     0.01000
H763        H  0.22845514  0.06226628  0.99853414     0.14800
H764        H  0.29285306  0.06044045  0.94792658     0.14800
N765        N  0.59299758  0.72734144  0.99194958    -0.01500
C766        C  0.59924271  0.76966351  0.98818941     0.01100
C767        C  0.60547500  0.78813608  0.69115447    -0.21800
C768        C  0.60285716  0.75594093  0.71835828    -0.22000
C769        C  0.59508762  0.71916686  0.69754819     0.01000
H770        H  0.60979255  0.82160537  0.69731922     0.14800
H771        H  0.60495036  0.75923742  0.74990452     0.14800
N772        N  0.50370181  0.26448356  0.70574539    -0.01500
C773        C  0.49731812  0.22211607  0.70861103     0.01100
C774        C  0.48797561  0.20500878  0.67230892    -0.21800
C775        C  0.48885379  0.23814564  0.97932464    -0.22000
C776        C  0.49875259  0.27404286  0.66734326     0.01000
H777        H  0.48282231  0.17181776  0.99877649     0.14800
H778        H  0.48445013  0.23598881  0.94789590     0.14800
N779        N  0.28098082  0.44679713  0.70546378    -0.01500
C780        C  0.32342613  0.44080065  0.70835450     0.01100
C781        C  0.34077935  0.43240542  0.67195153    -0.21800
C782        C  0.30774676  0.43347876  0.97887001    -0.22000
C783        C  0.27164304  0.44250594  0.66692900     0.01000
H784        H  0.37405869  0.42779425  0.99844042     0.14800
H785        H  0.31008112  0.42972921  0.94737900     0.14800
N786        N  0.81802568  0.53754651  0.99162381    -0.01500
C787        C  0.77574581  0.54403270  0.98781206     0.01100
C788        C  0.75731701  0.55068760  0.69073367    -0.21800
C789        C  0.78949719  0.54802030  0.71796829    -0.22000
C790        C  0.82622512  0.53981530  0.69720898     0.01000
H791        H  0.72387424  0.55528436  0.69685905     0.14800
H792        H  0.78620611  0.55038550  0.74949859     0.14800
Zr793      Zr  0.60535110  0.55898008  0.84583060     2.17500
O794        O  0.67289516  0.58286039  0.81846262    -0.49400
O795        O  0.59688963  0.62077839  0.88885751    -0.72600
O796        O  0.59638053  0.60937447  0.79208205    -0.79400
O797        O  0.66131954  0.49268463  0.92289585    -0.81100
O798        O  0.53767385  0.59153546  0.75659426    -0.76700
O799        O  0.66970590  0.55141694  0.88460246    -0.88400
O800        O  0.53563381  0.61230773  0.92337696    -0.74300
O801        O  0.53085503  0.57186748  0.84214305    -0.83800
O802        O  0.57655000  0.53393533  0.90614726    -0.83500
O803        O  0.58116916  0.51878166  0.78999773    -0.70300
O804        O  0.62288288  0.48461759  0.84934495    -0.82400
Zr805      Zr  0.49266678  0.43213295  0.85216227     2.26400
Zr806      Zr  0.50585044  0.53012666  0.78804496     2.06300
Zr807      Zr  0.59285029  0.45997893  0.90940149     2.10000
Zr808      Zr  0.50229659  0.54675702  0.90228376     1.78800
O809        O  0.64467523  0.40258631  0.91092124    -0.91200
O810        O  0.45020408  0.60034463  0.88359556    -0.39000
O811        O  0.51787779  0.47235602  0.90737368    -0.75600
O812        O  0.47520200  0.50650506  0.84845412    -0.94300
O813        O  0.52169254  0.45635231  0.79187997    -0.87600
O814        O  0.56722361  0.41909868  0.85539091    -0.90500
C815        C  0.56974294  0.63248064  0.91489106     1.03300
C816        C  0.68234515  0.52508019  0.91083374     1.16200
C817        C  0.57050450  0.61450999  0.76334700     1.07000
O818        O  0.45217148  0.58383423  0.77444040    -0.92600
O819        O  0.43735509  0.49761104  0.77390058    -0.88400
O820        O  0.43103202  0.43653371  0.80938111    -0.81500
C821        C  0.41763810  0.46366426  0.78417727     1.13600
O822        O  0.66459085  0.46252850  0.76661096    -0.94600
Zr823      Zr  0.59597528  0.44423835  0.79525789     1.88900
O824        O  0.50082226  0.37002278  0.80948627    -0.71300
O825        O  0.51145351  0.50651940  0.72040827    -0.50500
O826        O  0.58814474  0.44499760  0.72439793    -0.95200
O827        O  0.64970192  0.38986861  0.80679411    -0.52400
O828        O  0.56220558  0.37854575  0.77506895    -0.71800
C829        C  0.52807378  0.35836265  0.78349367     1.00600
O830        O  0.42623560  0.41348826  0.88521937    -0.60600
O831        O  0.59681300  0.47114969  0.97990676    -0.55400
O832        O  0.50119658  0.38113353  0.90506799    -0.92100
O833        O  0.55681739  0.40240518  0.94315361    -0.90500
O834        O  0.50283232  0.54638646  0.97343830    -0.90900
O835        O  0.43395662  0.53113305  0.93259843    -0.89600
C836        C  0.52513345  0.37818577  0.93541569     1.19400
H837        H  0.58909281  0.54833547  0.92831582     0.35400
H838        H  0.44475002  0.51024994  0.84812241     0.46200
H839        H  0.57296217  0.38920119  0.85910524     0.39700
H840        H  0.59439684  0.52917673  0.76630071     0.36200
H841        H  0.44592345  0.61749644  0.90761871     0.28000
H842        H  0.48519783  0.51741654  0.70800794     0.33900
H843        H  0.60057240  0.41775774  0.71543740     0.39900
H844        H  0.49034746  0.57401937  0.98121400     0.34300
H845        H  0.62613840  0.46288174  0.98716863     0.33200
H846        H  0.65170726  0.39914922  0.93905430     0.34900
H847        H  0.65026947  0.37296071  0.78229610     0.33800
H848        H  0.43204381  0.49973037  0.93244373     0.37800
H849        H  0.43169878  0.41765636  0.91356094     0.30600
H850        H  0.67221612  0.61429363  0.81961893     0.34800
H851        H  0.66968027  0.44145836  0.74556309     0.37700
H852        H  0.59598944  0.50231696  0.98368820     0.30300
H853        H  0.40607215  0.43662537  0.87878742     0.43100
H854        H  0.43399389  0.58411165  0.79814242     0.33200
H855        H  0.46546727  0.61960871  0.86546305     0.40800
H856        H  0.63721231  0.37045922  0.82649547     0.32700
H857        H  0.53472341  0.52372795  0.70904701     0.32700
H858        H  0.67169478  0.57578611  0.79017009     0.33000
Zr859      Zr  0.61553132  0.93991784  0.84582599     2.17500
O860        O  0.64010644  0.87243236  0.81887590    -0.49400
O861        O  0.67734997  0.94790881  0.88884974    -0.72600
O862        O  0.66535318  0.94887235  0.79156598    -0.79400
O863        O  0.54890249  0.88418650  0.92329738    -0.81100
O864        O  0.64736050  0.00737009  0.75585924    -0.76700
O865        O  0.60751056  0.87567701  0.88485025    -0.88400
O866        O  0.66964670  0.00974679  0.92260169    -0.74300
O867        O  0.62863541  0.01442500  0.84182599    -0.83800
O868        O  0.59085783  0.96891880  0.90615143    -0.83500
O869        O  0.57490179  0.96398480  0.79020544    -0.70300
O870        O  0.54119683  0.92246620  0.84981109    -0.82400
Zr871      Zr  0.48885538  0.05278993  0.85239153     2.26400
Zr872      Zr  0.58641505  0.03928919  0.78791536     2.06300
Zr873      Zr  0.51685278  0.95282472  0.90983321     2.10000
Zr874      Zr  0.60381527  0.04307455  0.90207750     1.78800
O875        O  0.45916216  0.90131781  0.91113105    -0.91200
O876        O  0.65710216  0.09595255  0.88462513    -0.39000
O877        O  0.52936038  0.02775883  0.90751578    -0.75600
O878        O  0.56325388  0.07007770  0.84837166    -0.94300
O879        O  0.51266972  0.02333864  0.79213460    -0.87600
O880        O  0.47572807  0.97829078  0.85596302    -0.90500
C881        C  0.68943181  0.97529696  0.91450116     1.03300
C882        C  0.58118966  0.86309284  0.91114402     1.16200
C883        C  0.67034937  0.97456828  0.76267080     1.07000
O884        O  0.63941037  0.09374964  0.77441588    -0.92600
O885        O  0.55397730  0.10772855  0.77362406    -0.88400
O886        O  0.49330355  0.11445128  0.80960929    -0.81500
C887        C  0.52027230  0.12766324  0.78417172     1.13600
O888        O  0.51892369  0.88022721  0.76773144    -0.94600
Zr889      Zr  0.50038812  0.94904401  0.79589024     1.88900
O890        O  0.42653714  0.04472113  0.80985671    -0.71300
O891        O  0.56253089  0.03384337  0.72036443    -0.50500
O892        O  0.50061235  0.95539698  0.72487416    -0.95200
O893        O  0.44656867  0.89510005  0.80893098    -0.52400
O894        O  0.43436581  0.98274372  0.77617418    -0.71800
C895        C  0.41448663  0.01717976  0.78425310     1.00600
O896        O  0.47101332  0.11956782  0.88518581    -0.60600
O897        O  0.52887907  0.94885746  0.98025595    -0.55400
O898        O  0.43802784  0.04438058  0.90552420    -0.92100
O899        O  0.45914463  0.98861462  0.94351297    -0.90500
O900        O  0.60324345  0.04143161  0.97320000    -0.90900
O901        O  0.58845463  0.11123214  0.93280996    -0.89600
C902        C  0.43497410  0.02033311  0.93580123     1.19400
H903        H  0.60536253  0.95641207  0.92827803     0.35400
H904        H  0.56705341  0.10052123  0.84795741     0.46200
H905        H  0.44584212  0.97264533  0.85985845     0.39700
H906        H  0.58512533  0.95067481  0.76648563     0.36200
H907        H  0.67419491  0.09971160  0.90876296     0.28000
H908        H  0.57473412  0.05934681  0.70767663     0.33900
H909        H  0.47264635  0.94427643  0.71637116     0.39900
H910        H  0.63100129  0.05348428  0.98117328     0.34300
H911        H  0.51944577  0.91995152  0.98773153     0.33200
H912        H  0.45503450  0.89486145  0.93929961     0.34900
H913        H  0.42940328  0.89382464  0.78460974     0.33800
H914        H  0.55705673  0.11236935  0.93435565     0.37800
H915        H  0.47418287  0.11395046  0.91360914     0.30600
H916        H  0.67154325  0.87373109  0.81931126     0.34800
H917        H  0.49698748  0.87418869  0.74767263     0.37700
H918        H  0.56010413  0.94829990  0.98367507     0.30300
H919        H  0.49491387  0.13905532  0.87938009     0.43100
H920        H  0.64022030  0.11125600  0.79853872     0.33200
H921        H  0.67645733  0.08122646  0.86619938     0.40800
H922        H  0.42723865  0.90782607  0.82856890     0.32700
H923        H  0.57855506  0.00959113  0.70927598     0.32700
H924        H  0.63225927  0.87302890  0.79074143     0.33000
Zr925      Zr  0.99607695  0.93003209  0.84568747     2.17500
O926        O  0.92830735  0.90579551  0.81911449    -0.49400
O927        O  0.00427377  0.86806490  0.88862067    -0.72600
O928        O  0.00470285  0.88031987  0.79125291    -0.79400
O929        O  0.94124507  0.99594789  0.92386077    -0.81100
O930        O  0.06315503  0.89826149  0.75547985    -0.76700
O931        O  0.93191183  0.93801348  0.88473022    -0.88400
O932        O  0.06590374  0.87577811  0.92271698    -0.74300
O933        O  0.07050069  0.91680921  0.84151072    -0.83800
O934        O  0.02532856  0.95450531  0.90597258    -0.83500
O935        O  0.02007803  0.97082459  0.79016562    -0.70300
O936        O  0.97882993  0.00443742  0.84975701    -0.82400
Zr937      Zr  0.10938007  0.05651102  0.85192699     2.26400
Zr938      Zr  0.09530450  0.95900677  0.78758713     2.06300
Zr939      Zr  0.00953759  0.02855628  0.90969866     2.10000
Zr940      Zr  0.09945900  0.94135467  0.90172322     1.78800
O941        O  0.95732464  0.08559181  0.91139982    -0.91200
O942        O  0.15125714  0.88724064  0.88358402    -0.39000
O943        O  0.08442127  0.01587150  0.90698112    -0.75600
O944        O  0.12642313  0.98199902  0.84799804    -0.94300
O945        O  0.07960220  0.03283835  0.79177124    -0.87600
O946        O  0.03497847  0.06988468  0.85588426    -0.90500
C947        C  0.03151305  0.85596461  0.91442466     1.03300
C948        C  0.91979005  0.96399116  0.91147936     1.16200
C949        C  0.03035179  0.87530665  0.76231497     1.07000
O950        O  0.14841940  0.90484793  0.77345286    -0.92600
O951        O  0.16402621  0.99093707  0.77337874    -0.88400
O952        O  0.17093222  0.05169643  0.80921561    -0.81500
C953        C  0.18403592  0.02463265  0.78385154     1.13600
O954        O  0.93631927  0.02759603  0.76780212    -0.94600
Zr955      Zr  0.00533953  0.04540556  0.79590183     1.88900
O956        O  0.10143822  0.11847047  0.80878600    -0.71300
O957        O  0.08916725  0.98309271  0.72012889    -0.50500
O958        O  0.00999706  0.04469889  0.72479271    -0.95200
O959        O  0.95205376  0.09956460  0.81020220    -0.52400
O960        O  0.03926464  0.11101875  0.77535431    -0.71800
C961        C  0.07389694  0.13065378  0.78322178     1.00600
O962        O  0.17623563  0.07513348  0.88433145    -0.60600
O963        O  0.00714564  0.01694212  0.98019891    -0.55400
O964        O  0.10107066  0.10723813  0.90514768    -0.92100
O965        O  0.04543199  0.08621727  0.94333928    -0.90500
O966        O  0.09819294  0.94278325  0.97287298    -0.90900
O967        O  0.16801318  0.95618859  0.93195595    -0.89600
C968        C  0.07718814  0.11030125  0.93552694     1.19400
H969        H  0.01280981  0.94005581  0.92812472     0.35400
H970        H  0.15685203  0.97808593  0.84752511     0.46200
H971        H  0.02952478  0.09978700  0.85989208     0.39700
H972        H  0.00667640  0.96068367  0.76645914     0.36200
H973        H  0.15537642  0.87027366  0.90774508     0.28000
H974        H  0.11546921  0.97258944  0.70752606     0.33900
H975        H  0.99943983  0.07290607  0.71635912     0.39900
H976        H  0.11046947  0.91521140  0.98109658     0.34300
H977        H  0.97735971  0.02293096  0.98774670     0.33200
H978        H  0.95006691  0.08869343  0.93951441     0.34900
H979        H  0.95140992  0.11774813  0.78650163     0.33800
H980        H  0.16932984  0.98757604  0.93360547     0.37800
H981        H  0.17087285  0.07202988  0.91280198     0.30600
H982        H  0.92955470  0.87435678  0.81937487     0.34800
H983        H  0.92971614  0.05050548  0.74885118     0.37700
H984        H  0.01037559  0.98591514  0.98385248     0.30300
H985        H  0.19596130  0.05142961  0.87852231     0.43100
H986        H  0.16453716  0.90174820  0.79822848     0.33200
H987        H  0.13587557  0.86792261  0.86558265     0.40800
H988        H  0.96464490  0.11789986  0.83070225     0.32700
H989        H  0.06603116  0.96574560  0.70871506     0.32700
H990        H  0.92870727  0.91381137  0.79101937     0.33000
Zr991      Zr  0.98662192  0.54942844  0.84541157     2.17500
O992        O  0.96264783  0.61728986  0.81883979    -0.49400
O993        O  0.92466277  0.54137924  0.88838919    -0.72600
O994        O  0.93659574  0.54080402  0.79127210    -0.79400
O995        O  0.05239449  0.60405911  0.92380267    -0.81100
O996        O  0.95409279  0.48204151  0.75572574    -0.76700
O997        O  0.99458561  0.61348433  0.88452439    -0.88400
O998        O  0.93263314  0.47997280  0.92274360    -0.75500
O999        O  0.97336909  0.47503048  0.84118433    -0.83800
O1000       O  0.01104532  0.52021275  0.90573543    -0.83500
O1001       O  0.02718868  0.52548278  0.78968256    -0.70300
O1002       O  0.06104450  0.56649986  0.84965985    -0.82400
Zr1003     Zr  0.11281422  0.43606423  0.85180834     2.26400
Zr1004     Zr  0.01546305  0.45020817  0.78717890     2.06300
Zr1005     Zr  0.08510535  0.53579342  0.90967358     2.10000
Zr1006     Zr  0.99781753  0.44612825  0.90144047     1.78800
O1007       O  0.14206017  0.58802603  0.91254185    -0.91200
O1008       O  0.94303001  0.39508800  0.88335584    -0.39000
O1009       O  0.07237574  0.46089016  0.90706019    -0.75600
O1010       O  0.03832234  0.41909778  0.84766060    -0.94300
O1011       O  0.08923677  0.46585887  0.79159894    -0.87600
O1012       O  0.12621700  0.51049110  0.85568029    -0.90500
C1013       C  0.91274596  0.51427122  0.91438156     1.03300
C1014       C  0.02044016  0.62551201  0.91140032     1.16200
C1015       C  0.93126247  0.51495353  0.76254216     1.07000
O1016       O  0.96206549  0.39682865  0.77148891    -0.92600
O1017       O  0.04752272  0.38149939  0.77297791    -0.88400
O1018       O  0.10829942  0.37464046  0.80880409    -0.81500
C1019       C  0.08127731  0.36152962  0.78337952     1.13600
O1020       O  0.08434460  0.60972116  0.76851374    -0.94600
Zr1021     Zr  0.10180303  0.54009702  0.79563956     1.88900
O1022       O  0.17512689  0.44396674  0.80925146    -0.71300
O1023       O  0.04040845  0.45710000  0.72003356    -0.50500
O1024       O  0.10196934  0.53511800  0.72451719    -0.95200
O1025       O  0.15644415  0.59287719  0.80977099    -0.52400
O1026       O  0.16707663  0.50557162  0.77504423    -0.71800
C1027       C  0.18699410  0.47120685  0.78331116     1.00600
O1028       O  0.13069115  0.36938794  0.88475686    -0.60600
O1029       O  0.07318913  0.53815432  0.98016806    -0.55400
O1030       O  0.16385249  0.44395547  0.90482749    -0.92100
O1031       O  0.14297677  0.49969208  0.94295234    -0.90500
O1032       O  0.99898793  0.44754178  0.97260880    -0.90900
O1033       O  0.01106591  0.37684906  0.93082419    -0.89600
C1034       C  0.16705390  0.46791906  0.93514604     1.19400
H1035       H  0.99661541  0.53277624  0.92787646     0.35400
H1036       H  0.03439283  0.38867210  0.84716600     0.46200
H1037       H  0.15612210  0.51593602  0.85967053     0.39700
H1038       H  0.01699399  0.53889371  0.76599598     0.36200
H1039       H  0.92584921  0.39144858  0.90745325     0.28000
H1040       H  0.03052658  0.43072395  0.70713534     0.33900
H1041       H  0.12963200  0.54717336  0.71625309     0.39900
H1042       H  0.97196690  0.43403730  0.98075375     0.34300
H1043       H  0.07817103  0.56813259  0.98769350     0.33200
H1044       H  0.14505716  0.59463115  0.94080689     0.34900
H1045       H  0.17276947  0.59545284  0.78505214     0.33800
H1046       H  0.04229239  0.37561067  0.93418775     0.37800
H1047       H  0.12635482  0.37482291  0.91308159     0.30600
H1048       H  0.93121696  0.61648720  0.82000078     0.34800
H1049       H  0.10546704  0.61519382  0.74759432     0.37700
H1050       H  0.04227720  0.53390904  0.98375900     0.30300
H1051       H  0.10741349  0.34945934  0.87813951     0.43100
H1052       H  0.95819470  0.38071454  0.79617396     0.33200
H1053       H  0.92407200  0.41060910  0.86513285     0.40800
H1054       H  0.17638565  0.57896592  0.82816297     0.32700
H1055       H  0.02281846  0.48001201  0.70855547     0.32700
H1056       H  0.96970420  0.61647826  0.79053464     0.33000
C1057       C  0.89694882  0.52363463  0.73599504    -0.11300
C1058       C  0.86636772  0.53117572  0.71585600    -0.12900
C1059       C  0.87564746  0.52356049  0.93770761    -0.11300
C1060       C  0.84786759  0.52997846  0.96155028    -0.12900
C1061       C  0.75094429  0.53892630  0.95266495    -0.11300
C1062       C  0.72220336  0.53322508  0.92987977    -0.12900
C1063       C  0.20063154  0.45863477  0.96221812    -0.11300
C1064       C  0.23116681  0.45088157  0.98228049    -0.12900
C1065       C  0.22421632  0.46205207  0.75995998    -0.11300
C1066       C  0.25181334  0.45527549  0.73595620    -0.12900
C1067       C  0.34926300  0.44793089  0.74248601    -0.11300
C1068       C  0.37825331  0.45483736  0.76466566    -0.12900
C1069       C  0.51157235  0.16710582  0.76472842    -0.11300
C1070       C  0.50471347  0.19614348  0.74259831    -0.12900
C1071       C  0.50761701  0.31440118  0.98270857    -0.11300
C1072       C  0.51577959  0.34480378  0.96263667    -0.12900
C1073       C  0.51919246  0.32107164  0.76024836    -0.11300
C1074       C  0.51245693  0.29350913  0.73624504    -0.12900
C1075       C  0.58916160  0.82318933  0.93015196    -0.11300
C1076       C  0.59451313  0.79443064  0.95298452    -0.12900
C1077       C  0.58658970  0.67902643  0.71621179    -0.11300
C1078       C  0.57912630  0.64863577  0.73660145    -0.12900
C1079       C  0.57884723  0.66968430  0.93811768    -0.11300
C1080       C  0.58536878  0.69751065  0.96188313    -0.12900
C1081       C  0.22342018  0.03331310  0.76441357    -0.11300
C1082       C  0.25246331  0.04041621  0.74240588    -0.12900
C1083       C  0.37108359  0.03749538  0.98307593    -0.11300
C1084       C  0.40151450  0.02953652  0.96297821    -0.12900
C1085       C  0.34980624  0.03282264  0.73668349    -0.11300
C1086       C  0.37719991  0.02611330  0.76090882    -0.12900
C1087       C  0.85117987  0.95053530  0.95341893    -0.11300
C1088       C  0.87997589  0.95601730  0.93065349    -0.12900
C1089       C  0.73505995  0.95825111  0.71585377    -0.11300
C1090       C  0.70447139  0.96583186  0.73595271    -0.12900
C1091       C  0.72654721  0.96606402  0.93781133    -0.11300
C1092       C  0.75421283  0.95945403  0.96171665    -0.12900
C1093       C  0.08666018  0.14372167  0.96264932    -0.11300
C1094       C  0.09486687  0.17424740  0.98252801    -0.12900
C1095       C  0.08982972  0.19552640  0.73587120    -0.11300
C1096       C  0.08298522  0.16791774  0.75986166    -0.12900
C1097       C  0.09002070  0.32217793  0.76378770    -0.11300
C1098       C  0.09699237  0.29312556  0.74169962    -0.12900
C1099       C  0.02168313  0.84113315  0.73562243    -0.11300
C1100       C  0.01439050  0.81044212  0.71555949    -0.12900
C1101       C  0.01558039  0.79101409  0.96148614    -0.11300
C1102       C  0.02218304  0.81875704  0.93763349    -0.12900
C1103       C  0.00657498  0.69395401  0.95347415    -0.11300
C1104       C  0.01225348  0.66519582  0.93071103    -0.12900
loop_ 
_geom_bond_atom_site_label_1 
_geom_bond_atom_site_label_2 
_geom_bond_distance 
_geom_bond_site_symmetry_2 
_ccdc_geom_bond_type 
N1            C2   1.353       .  A
N1          C373   1.353       .  A
N1          C365   1.411       .  S
C2          C367   1.439       .  S
C2          C371   1.381   1_455  A
C3            C4   1.376       .  A
C3          C738   1.381   1_654  A
C3            H6   1.083       .  S
C4            C5   1.379   1_655  A
C4            H7   1.082       .  S
C5          N737   1.353   1_554  A
C5          C364   1.440       .  S
N8           C12   1.352       .  A
N8            C9   1.352       .  A
N8          C359   1.412       .  S
C9          C362   1.437       .  S
C9           C10   1.382       .  A
C10         C747   1.376   1_554  A
C10         H749   1.083   1_554  S
C11         C378   1.376       .  A
C11         C380   1.380       .  A
C11          H14   1.083       .  S
C12        C1094   1.437   1_554  S
C12         C747   1.380   1_554  A
H13         C378   1.083       .  S
N15          C16   1.352       .  A
N15         C387   1.353       .  A
N15         C356   1.410       .  S
C16         C351   1.439       .  S
C16         C385   1.381       .  A
C17          C18   1.376       .  A
C17         C752   1.381   1_554  A
C17          H20   1.083       .  S
C18          C19   1.379       .  A
C18          H21   1.082       .  S
C19         N751   1.353   1_554  A
C19         C353   1.440       .  S
N22          C26   1.353       .  A
N22          C23   1.352       .  A
N22         C349   1.412       .  S
C23         C346   1.435       .  S
C23          C24   1.381       .  A
C24         C761   1.375   1_554  A
C24         H763   1.083   1_554  S
C25         C392   1.375       .  A
C25         C394   1.380       .  A
C25          H28   1.083       .  S
C26        C1083   1.437   1_554  S
C26         C761   1.380   1_554  A
H27         C392   1.083       .  S
N29          C30   1.352       .  A
N29         C401   1.354       .  A
N29         C344   1.410       .  S
C30         C340   1.439       .  S
C30         C399   1.381       .  A
C31          C32   1.376       .  A
C31         C766   1.381   1_554  A
C31          H34   1.083       .  S
C32          C33   1.379       .  A
C32          H35   1.082       .  S
C33         N765   1.354   1_554  A
C33         C341   1.439       .  S
N36          C40   1.352       .  A
N36          C37   1.352       .  A
N36         C338   1.411       .  S
C37         C334   1.437       .  S
C37          C38   1.381       .  A
C38         C775   1.376   1_554  A
C38         H777   1.083   1_554  S
C39         C406   1.376       .  A
C39         C408   1.379       .  A
C39          H42   1.083       .  S
C40        C1071   1.437   1_554  S
C40         C775   1.379   1_554  A
H41         C406   1.083       .  S
N43          C47   1.353       .  A
N43          C44   1.352       .  A
N43         C330   1.412       .  S
C44         C331   1.437       .  S
C44          C45   1.381       .  A
C45         C782   1.376   1_554  A
C45         H784   1.083   1_554  S
C46         C413   1.376       .  A
C46         C415   1.380       .  A
C46          H49   1.083       .  S
C47        C1064   1.438   1_554  S
C47         C782   1.380   1_554  A
H48         C413   1.083       .  S
N50          C51   1.352       .  A
N50         C422   1.354       .  A
N50         C324   1.411       .  S
C51         C325   1.439       .  S
C51         C420   1.381       .  A
C52          C53   1.376       .  A
C52         C787   1.381   1_554  A
C52          H55   1.083       .  S
C53          C54   1.380       .  A
C53          H56   1.082       .  S
C54         N786   1.354   1_554  A
C54         C322   1.440       .  S
Zr57         O58   2.440       .  S
Zr57         O59   2.450       .  S
Zr57         O60   2.440       .  S
Zr57         O63   2.430       .  S
Zr57         O65   2.382       .  S
Zr57         O66   2.381       .  S
Zr57         O67   2.409       .  S
Zr57         O68   2.407       .  S
O58         H114   0.990       .  S
O58         H122   0.991       .  S
O59          C79   1.286       .  A
O60          C81   1.284       .  A
O61         Zr71   2.432       .  S
O61          C80   1.283       .  A
O62         Zr70   2.426       .  S
O62          C81   1.282       .  A
O63          C80   1.282       .  A
O64         Zr72   2.423       .  S
O64          C79   1.280       .  A
O65         Zr70   2.397       .  S
O65         Zr72   2.374       .  S
O66         Zr71   2.386       .  S
O66         Zr72   2.375       .  S
O66         H101   0.966       .  S
O67         Zr70   2.398       .  S
O67         Zr87   2.398       .  S
O67         H104   0.966       .  S
O68         Zr71   2.385       .  S
O68         Zr87   2.394       .  S
Zr69         O94   2.446       .  S
Zr69         O88   2.450       .  S
Zr69         O96   2.429       .  S
Zr69         O84   2.431       .  S
Zr69         O75   2.403       .  S
Zr69         O76   2.407       .  S
Zr69         O77   2.375       .  S
Zr69         O78   2.384       .  S
Zr70         O89   2.429       .  S
Zr70         O82   2.434       .  S
Zr70         O83   2.434       .  S
Zr70         O76   2.393       .  S
Zr70         O77   2.378       .  S
Zr71         O73   2.434       .  S
Zr71         O95   2.432       .  S
Zr71         O97   2.427       .  S
Zr71         O75   2.392       .  S
Zr71         O78   2.387       .  S
Zr72         O98   2.426       .  S
Zr72         O99   2.436       .  S
Zr72         O74   2.436       .  S
Zr72         O75   2.398       .  S
Zr72         O76   2.387       .  S
O73         H110   0.990       .  S
O74         H105   0.990       .  S
O74         H119   0.990       .  S
O76         H102   0.966       .  S
O77         Zr87   2.371       .  S
O78         Zr87   2.376       .  S
O78         H103   0.966       .  S
C79         C343   1.442       .  S
C80         C326   1.435       .  S
C81         C342   1.435       .  S
O82         H118   0.990       .  S
O83          C85   1.284       .  A
O84          C85   1.282       .  A
C85         C332   1.434       .  S
O86         Zr87   2.439       .  S
O86         H115   0.990       .  S
Zr87         O90   2.428       .  S
Zr87         O91   2.437       .  S
Zr87         O92   2.424       .  S
O88          C93   1.287       .  A
O89         H106   0.989       .  S
O89         H121   0.990       .  S
O90         H107   0.990       .  S
O91         H111   0.990       .  S
O91         H120   0.989       .  S
O92          C93   1.280       .  A
C93         C337   1.443       .  S
O94         H113   0.990       .  S
O94         H117   0.990       .  S
O95         H109   0.990       .  S
O95         H116   0.990       .  S
O96         C100   1.283       .  A
O97         C100   1.282       .  A
O98         H108   0.990       .  S
O99         H112   0.990       .  S
C100        C336   1.432       .  S
Zr123       O124   2.440       .  S
Zr123       O125   2.449       .  S
Zr123       O126   2.441       .  S
Zr123       O129   2.433       .  S
Zr123       O131   2.385   1_565  S
Zr123       O132   2.380       .  S
Zr123       O133   2.409       .  S
Zr123       O134   2.407       .  S
O124        H180   0.990       .  S
O124        H188   0.991       .  S
O125        C145   1.285       .  A
O126        C147   1.284       .  A
O127       Zr137   2.428       .  S
O127        C146   1.282       .  A
O128       Zr136   2.425       .  S
O128        C147   1.282   1_545  A
O129        C146   1.283       .  A
O130       Zr138   2.425       .  S
O130        C145   1.280   1_545  A
O131       Zr136   2.399       .  S
O131       Zr138   2.375       .  S
O132       Zr137   2.387       .  S
O132       Zr138   2.373   1_565  S
O132        H167   0.966       .  S
O133       Zr136   2.399   1_565  S
O133       Zr153   2.399       .  S
O133        H170   0.966       .  S
O134       Zr137   2.385       .  S
O134       Zr153   2.393       .  S
Zr135       O160   2.446       .  S
Zr135       O154   2.452       .  S
Zr135       O162   2.431       .  S
Zr135       O150   2.431       .  S
Zr135       O141   2.403       .  S
Zr135       O142   2.407       .  S
Zr135       O143   2.375       .  S
Zr135       O144   2.384   1_545  S
Zr136       O155   2.428       .  S
Zr136       O148   2.435       .  S
Zr136       O149   2.433       .  S
Zr136       O142   2.391       .  S
Zr136       O143   2.379       .  S
Zr137       O139   2.434       .  S
Zr137       O161   2.434       .  S
Zr137       O163   2.426       .  S
Zr137       O141   2.392   1_565  S
Zr137       O144   2.385       .  S
Zr138       O164   2.425       .  S
Zr138       O165   2.435       .  S
Zr138       O140   2.436       .  S
Zr138       O141   2.399       .  S
Zr138       O142   2.388       .  S
O139        H176   0.990       .  S
O140        H171   0.990       .  S
O140        H185   0.990       .  S
O142        H168   0.966       .  S
O143       Zr153   2.373   1_545  S
O144       Zr153   2.376       .  S
O144        H169   0.966       .  S
C145        C355   1.442       .  S
C146        C339   1.435       .  S
C147        C354   1.435       .  S
O148        H184   0.990       .  S
O149        C151   1.284       .  A
O150        C151   1.283       .  A
C151        C333   1.433       .  S
O152       Zr153   2.440       .  S
O152        H181   0.990       .  S
Zr153       O156   2.429       .  S
Zr153       O157   2.439       .  S
Zr153       O158   2.427       .  S
O154        C159   1.287       .  A
O155        H172   0.989       .  S
O155        H187   0.990       .  S
O156        H173   0.990       .  S
O157        H177   0.990       .  S
O157        H186   0.989       .  S
O158        C159   1.281   1_565  A
C159        C350   1.445       .  S
O160        H179   0.990       .  S
O160        H183   0.990       .  S
O161        H175   0.990       .  S
O161        H182   0.990       .  S
O162        C166   1.283       .  A
O163        C166   1.282   1_565  A
O164        H174   0.990       .  S
O165        H178   0.990       .  S
C166        C348   1.432       .  S
Zr189       O190   2.439       .  S
Zr189       O191   2.452   1_655  S
Zr189       O192   2.442   1_655  S
Zr189       O195   2.431       .  S
Zr189       O197   2.383   1_655  S
Zr189       O198   2.380   1_655  S
Zr189       O199   2.409   1_655  S
Zr189       O200   2.407   1_565  S
O190        H246   0.990       .  S
O190        H254   0.991       .  S
O191        C211   1.286       .  A
O192        C213   1.284       .  A
O193       Zr203   2.430   1_665  S
O193        C212   1.283       .  A
O194       Zr202   2.424       .  S
O194        C213   1.281       .  A
O195        C212   1.283       .  A
O196       Zr204   2.426       .  S
O196        C211   1.281       .  A
O197       Zr202   2.398       .  S
O197       Zr204   2.375       .  S
O198       Zr203   2.386   1_565  S
O198       Zr204   2.374       .  S
O198        H233   0.966       .  S
O199       Zr202   2.398       .  S
O199       Zr219   2.400   1_565  S
O199        H236   0.966       .  S
O200       Zr203   2.384   1_655  S
O200       Zr219   2.394   1_655  S
Zr201       O226   2.447       .  S
Zr201       O220   2.455       .  S
Zr201       O228   2.431       .  S
Zr201       O216   2.428       .  S
Zr201       O207   2.403       .  S
Zr201       O208   2.409   1_545  S
Zr201       O209   2.375       .  S
Zr201       O210   2.383       .  S
Zr202       O221   2.429       .  S
Zr202       O214   2.435       .  S
Zr202       O215   2.433       .  S
Zr202       O208   2.392       .  S
Zr202       O209   2.380   1_565  S
Zr203       O205   2.434   1_455  S
Zr203       O227   2.432       .  S
Zr203       O229   2.426       .  S
Zr203       O207   2.392       .  S
Zr203       O210   2.387       .  S
Zr204       O230   2.426       .  S
Zr204       O231   2.436       .  S
Zr204       O206   2.437       .  S
Zr204       O207   2.399   1_565  S
Zr204       O208   2.390       .  S
O205        H242   0.990       .  S
O206        H237   0.990       .  S
O206        H251   0.990       .  S
O208        H234   0.966       .  S
O209       Zr219   2.374       .  S
O210       Zr219   2.376       .  S
O210        H235   0.966       .  S
C211        C366   1.443       .  S
C212        C352   1.435       .  S
C213        C363   1.435       .  S
O214        H250   0.990       .  S
O215        C217   1.284   1_565  A
O216        C217   1.282       .  A
C217        C345   1.432       .  S
O218       Zr219   2.439   1_655  S
O218        H247   0.990       .  S
Zr219       O222   2.429       .  S
Zr219       O223   2.440   1_455  S
Zr219       O224   2.428       .  S
O220        C225   1.287       .  A
O221        H238   0.989       .  S
O221        H253   0.990       .  S
O222        H239   0.990   1_455  S
O223        H243   0.990       .  S
O223        H252   0.989       .  S
O224        C225   1.281       .  A
C225        C360   1.446       .  S
O226        H245   0.990       .  S
O226        H249   0.990       .  S
O227        H241   0.990   1_455  S
O227        H248   0.990   1_545  S
O228        C232   1.283       .  A
O229        C232   1.282       .  A
O230        H240   0.990       .  S
O231        H244   0.990       .  S
C232        C357   1.432       .  S
Zr255       O256   2.439       .  S
Zr255       O257   2.452       .  S
Zr255       O258   2.441       .  S
Zr255       O261   2.430       .  S
Zr255       O263   2.382       .  S
Zr255       O264   2.380   1_655  S
Zr255       O265   2.410   1_655  S
Zr255       O266   2.407   1_655  S
O256        H312   0.990       .  S
O256        H320   0.991       .  S
O257        C277   1.286       .  A
O258        C279   1.284       .  A
O259       Zr269   2.430       .  S
O259        C278   1.283       .  A
O260       Zr268   2.425   1_655  S
O260        C279   1.282       .  A
O261        C278   1.282   1_655  A
O262       Zr270   2.423       .  S
O262        C277   1.280       .  A
O263       Zr268   2.399   1_655  S
O263       Zr270   2.375       .  S
O264       Zr269   2.385       .  S
O264       Zr270   2.373   1_455  S
O264        H299   0.966   1_455  S
O265       Zr268   2.399       .  S
O265       Zr285   2.401       .  S
O265        H302   0.966       .  S
O266       Zr269   2.386       .  S
O266       Zr285   2.393       .  S
Zr267       O292   2.446       .  S
Zr267       O286   2.452       .  S
Zr267       O294   2.431       .  S
Zr267       O282   2.430       .  S
Zr267       O273   2.404       .  S
Zr267       O274   2.408       .  S
Zr267       O275   2.375       .  S
Zr267       O276   2.383       .  S
Zr268       O287   2.430       .  S
Zr268       O280   2.435   1_455  S
Zr268       O281   2.435       .  S
Zr268       O274   2.393       .  S
Zr268       O275   2.378       .  S
Zr269       O271   2.434       .  S
Zr269       O293   2.434       .  S
Zr269       O295   2.428       .  S
Zr269       O273   2.393       .  S
Zr269       O276   2.387       .  S
Zr270       O296   2.427       .  S
Zr270       O297   2.435   1_655  S
Zr270       O272   2.436       .  S
Zr270       O273   2.399   1_655  S
Zr270       O274   2.390   1_655  S
O271        H308   0.990       .  S
O272        H303   0.990       .  S
O272        H317   0.990       .  S
O274        H300   0.966       .  S
O275       Zr285   2.373       .  S
O276       Zr285   2.377       .  S
O276        H301   0.966       .  S
C277        C323   1.442       .  S
C278        C368   1.435       .  S
C279        C321   1.435       .  S
O280        H316   0.990       .  S
O281        C283   1.284       .  A
O282        C283   1.282       .  A
C283        C361   1.434       .  S
O284       Zr285   2.441       .  S
O284        H313   0.990       .  S
Zr285       O288   2.430       .  S
Zr285       O289   2.439       .  S
Zr285       O290   2.427       .  S
O286        C291   1.287       .  A
O287        H304   0.989       .  S
O287        H319   0.990       .  S
O288        H305   0.990       .  S
O289        H309   0.990       .  S
O289        H318   0.989       .  S
O290        C291   1.281       .  A
C291        C329   1.445       .  S
O292        H311   0.990       .  S
O292        H315   0.990       .  S
O293        H307   0.990       .  S
O293        H314   0.989       .  S
O294        C298   1.283       .  A
O295        C298   1.282       .  A
O296        H306   0.990       .  S
O297        H310   0.990       .  S
C298        C327   1.433       .  S
C321        C322   1.206       .  T
C323        C324   1.211       .  T
C325        C326   1.206       .  T
C327        C328   1.204       .  T
C328        C415   1.438       .  S
C329        C330   1.212       .  T
C331        C332   1.205       .  T
C333        C334   1.204       .  T
C335        C408   1.437       .  S
C335        C336   1.204       .  T
C337        C338   1.211       .  T
C339        C340   1.206       .  T
C341        C342   1.205       .  T
C343        C344   1.210       .  T
C345        C346   1.203       .  T
C347        C394   1.437       .  S
C347        C348   1.204       .  T
C349        C350   1.212       .  T
C351        C352   1.206       .  T
C353        C354   1.205       .  T
C355        C356   1.210       .  T
C357        C358   1.204       .  T
C358        C380   1.437       .  S
C359        C360   1.213       .  T
C361        C362   1.205       .  T
C363        C364   1.206       .  T
C365        C366   1.211       .  T
C367        C368   1.205       .  T
N369        C741   1.353       .  A
N369        C370   1.353       .  A
N369        C733   1.411       .  S
C370        C735   1.439       .  S
C370        C739   1.381   1_455  A
C371        C372   1.376       .  A
C371        H374   1.083       .  S
C372        C373   1.379   1_655  A
C372        H375   1.082       .  S
C373        C732   1.440       .  S
N376        C380   1.352       .  A
N376        C377   1.352       .  A
N376        C727   1.412       .  S
C377        C730   1.437       .  S
C377        C378   1.382       .  A
C379        C746   1.376       .  A
C379        C748   1.380       .  A
C379        H382   1.083       .  S
H381        C746   1.083       .  S
N383        C755   1.353       .  A
N383        C384   1.352       .  A
N383        C724   1.410       .  S
C384        C719   1.439       .  S
C384        C753   1.381       .  A
C385        C386   1.376       .  A
C385        H388   1.083       .  S
C386        C387   1.379       .  A
C386        H389   1.082       .  S
C387        C721   1.440       .  S
N390        C394   1.353       .  A
N390        C391   1.352       .  A
N390        C717   1.412       .  S
C391        C714   1.435       .  S
C391        C392   1.381       .  A
C393        C760   1.375       .  A
C393        C762   1.380       .  A
C393        H396   1.083       .  S
H395        C760   1.083       .  S
N397        C769   1.354       .  A
N397        C398   1.352       .  A
N397        C712   1.410       .  S
C398        C708   1.439       .  S
C398        C767   1.381       .  A
C399        C400   1.376       .  A
C399        H402   1.083       .  S
C400        C401   1.379       .  A
C400        H403   1.082       .  S
C401        C709   1.439       .  S
N404        C408   1.352       .  A
N404        C405   1.352       .  A
N404        C706   1.411       .  S
C405        C702   1.437       .  S
C405        C406   1.381       .  A
C407        C774   1.376       .  A
C407        C776   1.379       .  A
C407        H410   1.083       .  S
H409        C774   1.083       .  S
N411        C415   1.353       .  A
N411        C412   1.352       .  A
N411        C698   1.412       .  S
C412        C699   1.437       .  S
C412        C413   1.381       .  A
C414        C781   1.376       .  A
C414        C783   1.380       .  A
C414        H417   1.083       .  S
H416        C781   1.083       .  S
N418        C790   1.354       .  A
N418        C419   1.352       .  A
N418        C692   1.411       .  S
C419        C693   1.439       .  S
C419        C788   1.381       .  A
C420        C421   1.376       .  A
C420        H423   1.083       .  S
C421        C422   1.380       .  A
C421        H424   1.082       .  S
C422        C690   1.440       .  S
Zr425       O426   2.440       .  S
Zr425       O427   2.450       .  S
Zr425       O428   2.440       .  S
Zr425       O431   2.430       .  S
Zr425       O433   2.382       .  S
Zr425       O434   2.381       .  S
Zr425       O435   2.409       .  S
Zr425       O436   2.407       .  S
O426        H482   0.990       .  S
O426        H490   0.991       .  S
O427        C447   1.286       .  A
O428        C449   1.284       .  A
O429       Zr439   2.432       .  S
O429        C448   1.283       .  A
O430       Zr438   2.426       .  S
O430        C449   1.282       .  A
O431        C448   1.282       .  A
O432       Zr440   2.423       .  S
O432        C447   1.280       .  A
O433       Zr438   2.397       .  S
O433       Zr440   2.374       .  S
O434       Zr439   2.386       .  S
O434       Zr440   2.375       .  S
O434        H469   0.966       .  S
O435       Zr438   2.398       .  S
O435       Zr455   2.398       .  S
O435        H472   0.966       .  S
O436       Zr439   2.385       .  S
O436       Zr455   2.394       .  S
Zr437       O462   2.446       .  S
Zr437       O456   2.450       .  S
Zr437       O464   2.429       .  S
Zr437       O452   2.431       .  S
Zr437       O443   2.403       .  S
Zr437       O444   2.407       .  S
Zr437       O445   2.375       .  S
Zr437       O446   2.384       .  S
Zr438       O457   2.429       .  S
Zr438       O450   2.434       .  S
Zr438       O451   2.434       .  S
Zr438       O444   2.393       .  S
Zr438       O445   2.378       .  S
Zr439       O441   2.434       .  S
Zr439       O463   2.432       .  S
Zr439       O465   2.427       .  S
Zr439       O443   2.392       .  S
Zr439       O446   2.387       .  S
Zr440       O466   2.426       .  S
Zr440       O467   2.436       .  S
Zr440       O442   2.436       .  S
Zr440       O443   2.398       .  S
Zr440       O444   2.387       .  S
O441        H478   0.990       .  S
O442        H473   0.990       .  S
O442        H487   0.990       .  S
O444        H470   0.966       .  S
O445       Zr455   2.371       .  S
O446       Zr455   2.376       .  S
O446        H471   0.966       .  S
C447        C711   1.442       .  S
C448        C694   1.435       .  S
C449        C710   1.435       .  S
O450        H486   0.990       .  S
O451        C453   1.284       .  A
O452        C453   1.282       .  A
C453        C700   1.434       .  S
O454       Zr455   2.439       .  S
O454        H483   0.990       .  S
Zr455       O458   2.428       .  S
Zr455       O459   2.437       .  S
Zr455       O460   2.424       .  S
O456        C461   1.287       .  A
O457        H474   0.989       .  S
O457        H489   0.990       .  S
O458        H475   0.990       .  S
O459        H479   0.990       .  S
O459        H488   0.989       .  S
O460        C461   1.280       .  A
C461        C705   1.443       .  S
O462        H481   0.990       .  S
O462        H485   0.990       .  S
O463        H477   0.990       .  S
O463        H484   0.990       .  S
O464        C468   1.283       .  A
O465        C468   1.282       .  A
O466        H476   0.990       .  S
O467        H480   0.990       .  S
C468        C704   1.432       .  S
Zr491       O492   2.440       .  S
Zr491       O493   2.449       .  S
Zr491       O494   2.441       .  S
Zr491       O497   2.433       .  S
Zr491       O499   2.385   1_565  S
Zr491       O500   2.380       .  S
Zr491       O501   2.409       .  S
Zr491       O502   2.407       .  S
O492        H548   0.990       .  S
O492        H556   0.991       .  S
O493        C513   1.285       .  A
O494        C515   1.284       .  A
O495       Zr505   2.428       .  S
O495        C514   1.282       .  A
O496       Zr504   2.425       .  S
O496        C515   1.282   1_545  A
O497        C514   1.283       .  A
O498       Zr506   2.425       .  S
O498        C513   1.280   1_545  A
O499       Zr504   2.399       .  S
O499       Zr506   2.375       .  S
O500       Zr505   2.387       .  S
O500       Zr506   2.373   1_565  S
O500        H535   0.966       .  S
O501       Zr504   2.399   1_565  S
O501       Zr521   2.399       .  S
O501        H538   0.966       .  S
O502       Zr505   2.385       .  S
O502       Zr521   2.393       .  S
Zr503       O528   2.446       .  S
Zr503       O522   2.452       .  S
Zr503       O530   2.431       .  S
Zr503       O518   2.431       .  S
Zr503       O509   2.403       .  S
Zr503       O510   2.407       .  S
Zr503       O511   2.375       .  S
Zr503       O512   2.384   1_545  S
Zr504       O523   2.428       .  S
Zr504       O516   2.435       .  S
Zr504       O517   2.433       .  S
Zr504       O510   2.391       .  S
Zr504       O511   2.379       .  S
Zr505       O507   2.434       .  S
Zr505       O529   2.434       .  S
Zr505       O531   2.426       .  S
Zr505       O509   2.392   1_565  S
Zr505       O512   2.385       .  S
Zr506       O532   2.425       .  S
Zr506       O533   2.435       .  S
Zr506       O508   2.436       .  S
Zr506       O509   2.399       .  S
Zr506       O510   2.388       .  S
O507        H544   0.990       .  S
O508        H539   0.990       .  S
O508        H553   0.990       .  S
O510        H536   0.966       .  S
O511       Zr521   2.373   1_545  S
O512       Zr521   2.376       .  S
O512        H537   0.966       .  S
C513        C723   1.442       .  S
C514        C707   1.435       .  S
C515        C722   1.435       .  S
O516        H552   0.990       .  S
O517        C519   1.284       .  A
O518        C519   1.283       .  A
C519        C701   1.433       .  S
O520       Zr521   2.440       .  S
O520        H549   0.990       .  S
Zr521       O524   2.429       .  S
Zr521       O525   2.439       .  S
Zr521       O526   2.427       .  S
O522        C527   1.287       .  A
O523        H540   0.989       .  S
O523        H555   0.990       .  S
O524        H541   0.990       .  S
O525        H545   0.990       .  S
O525        H554   0.989       .  S
O526        C527   1.281   1_565  A
C527        C718   1.445       .  S
O528        H547   0.990       .  S
O528        H551   0.990       .  S
O529        H543   0.990       .  S
O529        H550   0.990       .  S
O530        C534   1.283       .  A
O531        C534   1.282   1_565  A
O532        H542   0.990       .  S
O533        H546   0.990       .  S
C534        C716   1.432       .  S
Zr557       O558   2.439       .  S
Zr557       O559   2.452   1_655  S
Zr557       O560   2.442   1_655  S
Zr557       O563   2.431       .  S
Zr557       O565   2.383   1_655  S
Zr557       O566   2.380   1_655  S
Zr557       O567   2.409   1_655  S
Zr557       O568   2.407   1_565  S
O558        H614   0.990       .  S
O558        H622   0.991       .  S
O559        C579   1.286       .  A
O560        C581   1.284       .  A
O561       Zr571   2.430   1_665  S
O561        C580   1.283       .  A
O562       Zr570   2.424       .  S
O562        C581   1.281       .  A
O563        C580   1.283       .  A
O564       Zr572   2.426       .  S
O564        C579   1.281       .  A
O565       Zr570   2.398       .  S
O565       Zr572   2.375       .  S
O566       Zr571   2.386   1_565  S
O566       Zr572   2.374       .  S
O566        H601   0.966       .  S
O567       Zr570   2.398       .  S
O567       Zr587   2.400   1_565  S
O567        H604   0.966       .  S
O568       Zr571   2.384   1_655  S
O568       Zr587   2.394   1_655  S
Zr569       O594   2.447       .  S
Zr569       O588   2.455       .  S
Zr569       O596   2.431       .  S
Zr569       O584   2.428       .  S
Zr569       O575   2.403       .  S
Zr569       O576   2.409   1_545  S
Zr569       O577   2.375       .  S
Zr569       O578   2.383       .  S
Zr570       O589   2.429       .  S
Zr570       O582   2.435       .  S
Zr570       O583   2.433       .  S
Zr570       O576   2.392       .  S
Zr570       O577   2.380   1_565  S
Zr571       O573   2.434   1_455  S
Zr571       O595   2.432       .  S
Zr571       O597   2.426       .  S
Zr571       O575   2.392       .  S
Zr571       O578   2.387       .  S
Zr572       O598   2.426       .  S
Zr572       O599   2.436       .  S
Zr572       O574   2.437       .  S
Zr572       O575   2.399   1_565  S
Zr572       O576   2.390       .  S
O573        H610   0.990       .  S
O574        H605   0.990       .  S
O574        H619   0.990       .  S
O576        H602   0.966       .  S
O577       Zr587   2.374       .  S
O578       Zr587   2.376       .  S
O578        H603   0.966       .  S
C579        C734   1.443       .  S
C580        C720   1.435       .  S
C581        C731   1.435       .  S
O582        H618   0.990       .  S
O583        C585   1.284   1_565  A
O584        C585   1.282       .  A
C585        C713   1.432       .  S
O586       Zr587   2.439   1_655  S
O586        H615   0.990       .  S
Zr587       O590   2.429       .  S
Zr587       O591   2.440   1_455  S
Zr587       O592   2.428       .  S
O588        C593   1.287       .  A
O589        H606   0.989       .  S
O589        H621   0.990       .  S
O590        H607   0.990   1_455  S
O591        H611   0.990       .  S
O591        H620   0.989       .  S
O592        C593   1.281       .  A
C593        C728   1.446       .  S
O594        H613   0.990       .  S
O594        H617   0.990       .  S
O595        H609   0.990   1_455  S
O595        H616   0.990   1_545  S
O596        C600   1.283       .  A
O597        C600   1.282       .  A
O598        H608   0.990       .  S
O599        H612   0.990       .  S
C600        C725   1.432       .  S
Zr623       O624   2.439       .  S
Zr623       O625   2.452       .  S
Zr623       O626   2.441       .  S
Zr623       O629   2.430       .  S
Zr623       O631   2.382       .  S
Zr623       O632   2.380   1_655  S
Zr623       O633   2.410   1_655  S
Zr623       O634   2.407   1_655  S
O624        H680   0.990       .  S
O624        H688   0.991       .  S
O625        C645   1.286       .  A
O626        C647   1.284       .  A
O627       Zr637   2.430       .  S
O627        C646   1.283       .  A
O628       Zr636   2.425   1_655  S
O628        C647   1.282       .  A
O629        C646   1.282   1_655  A
O630       Zr638   2.423       .  S
O630        C645   1.280       .  A
O631       Zr636   2.399   1_655  S
O631       Zr638   2.375       .  S
O632       Zr637   2.385       .  S
O632       Zr638   2.373   1_455  S
O632        H667   0.966   1_455  S
O633       Zr636   2.399       .  S
O633       Zr653   2.401       .  S
O633        H670   0.966       .  S
O634       Zr637   2.386       .  S
O634       Zr653   2.393       .  S
Zr635       O660   2.446       .  S
Zr635       O654   2.452       .  S
Zr635       O662   2.431       .  S
Zr635       O650   2.430       .  S
Zr635       O641   2.404       .  S
Zr635       O642   2.408       .  S
Zr635       O643   2.375       .  S
Zr635       O644   2.383       .  S
Zr636       O655   2.430       .  S
Zr636       O648   2.435   1_455  S
Zr636       O649   2.435       .  S
Zr636       O642   2.393       .  S
Zr636       O643   2.378       .  S
Zr637       O639   2.434       .  S
Zr637       O661   2.434       .  S
Zr637       O663   2.428       .  S
Zr637       O641   2.393       .  S
Zr637       O644   2.387       .  S
Zr638       O664   2.427       .  S
Zr638       O665   2.435   1_655  S
Zr638       O640   2.436       .  S
Zr638       O641   2.399   1_655  S
Zr638       O642   2.390   1_655  S
O639        H676   0.990       .  S
O640        H671   0.990       .  S
O640        H685   0.990       .  S
O642        H668   0.966       .  S
O643       Zr653   2.373       .  S
O644       Zr653   2.377       .  S
O644        H669   0.966       .  S
C645        C691   1.442       .  S
C646        C736   1.435       .  S
C647        C689   1.435       .  S
O648        H684   0.990       .  S
O649        C651   1.284       .  A
O650        C651   1.282       .  A
C651        C729   1.434       .  S
O652       Zr653   2.441       .  S
O652        H681   0.990       .  S
Zr653       O656   2.430       .  S
Zr653       O657   2.439       .  S
Zr653       O658   2.427       .  S
O654        C659   1.287       .  A
O655        H672   0.989       .  S
O655        H687   0.990       .  S
O656        H673   0.990       .  S
O657        H677   0.990       .  S
O657        H686   0.989       .  S
O658        C659   1.281       .  A
C659        C697   1.445       .  S
O660        H679   0.990       .  S
O660        H683   0.990       .  S
O661        H675   0.990       .  S
O661        H682   0.989       .  S
O662        C666   1.283       .  A
O663        C666   1.282       .  A
O664        H674   0.990       .  S
O665        H678   0.990       .  S
C666        C695   1.433       .  S
C689        C690   1.206       .  T
C691        C692   1.211       .  T
C693        C694   1.206       .  T
C695        C696   1.204       .  T
C696        C783   1.438       .  S
C697        C698   1.212       .  T
C699        C700   1.205       .  T
C701        C702   1.204       .  T
C703        C776   1.437       .  S
C703        C704   1.204       .  T
C705        C706   1.211       .  T
C707        C708   1.206       .  T
C709        C710   1.205       .  T
C711        C712   1.210       .  T
C713        C714   1.203       .  T
C715        C762   1.437       .  S
C715        C716   1.204       .  T
C717        C718   1.212       .  T
C719        C720   1.206       .  T
C721        C722   1.205       .  T
C723        C724   1.210       .  T
C725        C726   1.204       .  T
C726        C748   1.437       .  S
C727        C728   1.213       .  T
C729        C730   1.205       .  T
C731        C732   1.206       .  T
C733        C734   1.211       .  T
C735        C736   1.205       .  T
N737        C738   1.353       .  A
N737       C1101   1.411       .  S
C738       C1103   1.439       .  S
C739        C740   1.376       .  A
C739        H742   1.083       .  S
C740        C741   1.379   1_655  A
C740        H743   1.082       .  S
C741       C1100   1.440       .  S
N744        C748   1.352       .  A
N744        C745   1.352       .  A
N744       C1095   1.412       .  S
C745       C1098   1.437       .  S
C745        C746   1.382       .  A
C747        H750   1.083       .  S
N751        C752   1.352       .  A
N751       C1092   1.410       .  S
C752       C1087   1.439       .  S
C753        C754   1.376       .  A
C753        H756   1.083       .  S
C754        C755   1.379       .  A
C754        H757   1.082       .  S
C755       C1089   1.440       .  S
N758        C762   1.353       .  A
N758        C759   1.352       .  A
N758       C1085   1.412       .  S
C759       C1082   1.435       .  S
C759        C760   1.381       .  A
C761        H764   1.083       .  S
N765        C766   1.352       .  A
N765       C1080   1.410       .  S
C766       C1076   1.439       .  S
C767        C768   1.376       .  A
C767        H770   1.083       .  S
C768        C769   1.379       .  A
C768        H771   1.082       .  S
C769       C1077   1.439       .  S
N772        C776   1.352       .  A
N772        C773   1.352       .  A
N772       C1074   1.411       .  S
C773       C1070   1.437       .  S
C773        C774   1.381       .  A
C775        H778   1.083       .  S
N779        C783   1.353       .  A
N779        C780   1.352       .  A
N779       C1066   1.412       .  S
C780       C1067   1.437       .  S
C780        C781   1.381       .  A
C782        H785   1.083       .  S
N786        C787   1.352       .  A
N786       C1060   1.411       .  S
C787       C1061   1.439       .  S
C788        C789   1.376       .  A
C788        H791   1.083       .  S
C789        C790   1.380       .  A
C789        H792   1.082       .  S
C790       C1058   1.440       .  S
Zr793       O794   2.440       .  S
Zr793       O795   2.450       .  S
Zr793       O796   2.440       .  S
Zr793       O799   2.430       .  S
Zr793       O801   2.382       .  S
Zr793       O802   2.381       .  S
Zr793       O803   2.409       .  S
Zr793       O804   2.407       .  S
O794        H850   0.990       .  S
O794        H858   0.991       .  S
O795        C815   1.286       .  A
O796        C817   1.284       .  A
O797       Zr807   2.432       .  S
O797        C816   1.283       .  A
O798       Zr806   2.426       .  S
O798        C817   1.282       .  A
O799        C816   1.282       .  A
O800       Zr808   2.423       .  S
O800        C815   1.280       .  A
O801       Zr806   2.397       .  S
O801       Zr808   2.374       .  S
O802       Zr807   2.386       .  S
O802       Zr808   2.375       .  S
O802        H837   0.966       .  S
O803       Zr806   2.398       .  S
O803       Zr823   2.398       .  S
O803        H840   0.966       .  S
O804       Zr807   2.385       .  S
O804       Zr823   2.394       .  S
Zr805       O830   2.446       .  S
Zr805       O824   2.450       .  S
Zr805       O832   2.429       .  S
Zr805       O820   2.431       .  S
Zr805       O811   2.403       .  S
Zr805       O812   2.407       .  S
Zr805       O813   2.375       .  S
Zr805       O814   2.384       .  S
Zr806       O825   2.429       .  S
Zr806       O818   2.434       .  S
Zr806       O819   2.434       .  S
Zr806       O812   2.393       .  S
Zr806       O813   2.378       .  S
Zr807       O809   2.434       .  S
Zr807       O831   2.432       .  S
Zr807       O833   2.427       .  S
Zr807       O811   2.392       .  S
Zr807       O814   2.387       .  S
Zr808       O834   2.426       .  S
Zr808       O835   2.436       .  S
Zr808       O810   2.436       .  S
Zr808       O811   2.398       .  S
Zr808       O812   2.387       .  S
O809        H846   0.990       .  S
O810        H841   0.990       .  S
O810        H855   0.990       .  S
O812        H838   0.966       .  S
O813       Zr823   2.371       .  S
O814       Zr823   2.376       .  S
O814        H839   0.966       .  S
C815       C1079   1.442       .  S
C816       C1062   1.435       .  S
C817       C1078   1.435       .  S
O818        H854   0.990       .  S
O819        C821   1.284       .  A
O820        C821   1.282       .  A
C821       C1068   1.434       .  S
O822       Zr823   2.439       .  S
O822        H851   0.990       .  S
Zr823       O826   2.428       .  S
Zr823       O827   2.437       .  S
Zr823       O828   2.424       .  S
O824        C829   1.287       .  A
O825        H842   0.989       .  S
O825        H857   0.990       .  S
O826        H843   0.990       .  S
O827        H847   0.990       .  S
O827        H856   0.989       .  S
O828        C829   1.280       .  A
C829       C1073   1.443       .  S
O830        H849   0.990       .  S
O830        H853   0.990       .  S
O831        H845   0.990       .  S
O831        H852   0.990       .  S
O832        C836   1.283       .  A
O833        C836   1.282       .  A
O834        H844   0.990       .  S
O835        H848   0.990       .  S
C836       C1072   1.432       .  S
Zr859       O860   2.440       .  S
Zr859       O861   2.449       .  S
Zr859       O862   2.441       .  S
Zr859       O865   2.433       .  S
Zr859       O867   2.385   1_565  S
Zr859       O868   2.380       .  S
Zr859       O869   2.409       .  S
Zr859       O870   2.407       .  S
O860        H916   0.990       .  S
O860        H924   0.991       .  S
O861        C881   1.285       .  A
O862        C883   1.284       .  A
O863       Zr873   2.428       .  S
O863        C882   1.282       .  A
O864       Zr872   2.425       .  S
O864        C883   1.282   1_545  A
O865        C882   1.283       .  A
O866       Zr874   2.425       .  S
O866        C881   1.280   1_545  A
O867       Zr872   2.399       .  S
O867       Zr874   2.375       .  S
O868       Zr873   2.387       .  S
O868       Zr874   2.373   1_565  S
O868        H903   0.966       .  S
O869       Zr872   2.399   1_565  S
O869       Zr889   2.399       .  S
O869        H906   0.966       .  S
O870       Zr873   2.385       .  S
O870       Zr889   2.393       .  S
Zr871       O896   2.446       .  S
Zr871       O890   2.452       .  S
Zr871       O898   2.431       .  S
Zr871       O886   2.431       .  S
Zr871       O877   2.403       .  S
Zr871       O878   2.407       .  S
Zr871       O879   2.375       .  S
Zr871       O880   2.384   1_545  S
Zr872       O891   2.428       .  S
Zr872       O884   2.435       .  S
Zr872       O885   2.433       .  S
Zr872       O878   2.391       .  S
Zr872       O879   2.379       .  S
Zr873       O875   2.434       .  S
Zr873       O897   2.434       .  S
Zr873       O899   2.426       .  S
Zr873       O877   2.392   1_565  S
Zr873       O880   2.385       .  S
Zr874       O900   2.425       .  S
Zr874       O901   2.435       .  S
Zr874       O876   2.436       .  S
Zr874       O877   2.399       .  S
Zr874       O878   2.388       .  S
O875        H912   0.990       .  S
O876        H907   0.990       .  S
O876        H921   0.990       .  S
O878        H904   0.966       .  S
O879       Zr889   2.373   1_545  S
O880       Zr889   2.376       .  S
O880        H905   0.966       .  S
C881       C1091   1.442       .  S
C882       C1075   1.435       .  S
C883       C1090   1.435       .  S
O884        H920   0.990       .  S
O885        C887   1.284       .  A
O886        C887   1.283       .  A
C887       C1069   1.433       .  S
O888       Zr889   2.440       .  S
O888        H917   0.990       .  S
Zr889       O892   2.429       .  S
Zr889       O893   2.439       .  S
Zr889       O894   2.427       .  S
O890        C895   1.287       .  A
O891        H908   0.989       .  S
O891        H923   0.990       .  S
O892        H909   0.990       .  S
O893        H913   0.990       .  S
O893        H922   0.989       .  S
O894        C895   1.281   1_565  A
C895       C1086   1.445       .  S
O896        H915   0.990       .  S
O896        H919   0.990       .  S
O897        H911   0.990       .  S
O897        H918   0.990       .  S
O898        C902   1.283       .  A
O899        C902   1.282   1_565  A
O900        H910   0.990       .  S
O901        H914   0.990       .  S
C902       C1084   1.432       .  S
Zr925       O926   2.439       .  S
Zr925       O927   2.452   1_655  S
Zr925       O928   2.442   1_655  S
Zr925       O931   2.431       .  S
Zr925       O933   2.383   1_655  S
Zr925       O934   2.380   1_655  S
Zr925       O935   2.409   1_655  S
Zr925       O936   2.407   1_565  S
O926        H982   0.990       .  S
O926        H990   0.991       .  S
O927        C947   1.286       .  A
O928        C949   1.284       .  A
O929       Zr939   2.430   1_665  S
O929        C948   1.283       .  A
O930       Zr938   2.424       .  S
O930        C949   1.281       .  A
O931        C948   1.283       .  A
O932       Zr940   2.426       .  S
O932        C947   1.281       .  A
O933       Zr938   2.398       .  S
O933       Zr940   2.375       .  S
O934       Zr939   2.386   1_565  S
O934       Zr940   2.374       .  S
O934        H969   0.966       .  S
O935       Zr938   2.398       .  S
O935       Zr955   2.400   1_565  S
O935        H972   0.966       .  S
O936       Zr939   2.384   1_655  S
O936       Zr955   2.394   1_655  S
Zr937       O962   2.447       .  S
Zr937       O956   2.455       .  S
Zr937       O964   2.431       .  S
Zr937       O952   2.428       .  S
Zr937       O943   2.403       .  S
Zr937       O944   2.409   1_545  S
Zr937       O945   2.375       .  S
Zr937       O946   2.383       .  S
Zr938       O957   2.429       .  S
Zr938       O950   2.435       .  S
Zr938       O951   2.433       .  S
Zr938       O944   2.392       .  S
Zr938       O945   2.380   1_565  S
Zr939       O941   2.434   1_455  S
Zr939       O963   2.432       .  S
Zr939       O965   2.426       .  S
Zr939       O943   2.392       .  S
Zr939       O946   2.387       .  S
Zr940       O966   2.426       .  S
Zr940       O967   2.436       .  S
Zr940       O942   2.437       .  S
Zr940       O943   2.399   1_565  S
Zr940       O944   2.390       .  S
O941        H978   0.990       .  S
O942        H973   0.990       .  S
O942        H987   0.990       .  S
O944        H970   0.966       .  S
O945       Zr955   2.374       .  S
O946       Zr955   2.376       .  S
O946        H971   0.966       .  S
C947       C1102   1.443       .  S
C948       C1088   1.435       .  S
C949       C1099   1.435       .  S
O950        H986   0.990       .  S
O951        C953   1.284   1_565  A
O952        C953   1.282       .  A
C953       C1081   1.432       .  S
O954       Zr955   2.439   1_655  S
O954        H983   0.990       .  S
Zr955       O958   2.429       .  S
Zr955       O959   2.440   1_455  S
Zr955       O960   2.428       .  S
O956        C961   1.287       .  A
O957        H974   0.989       .  S
O957        H989   0.990       .  S
O958        H975   0.990   1_455  S
O959        H979   0.990       .  S
O959        H988   0.989       .  S
O960        C961   1.281       .  A
C961       C1096   1.446       .  S
O962        H981   0.990       .  S
O962        H985   0.990       .  S
O963        H977   0.990   1_455  S
O963        H984   0.990   1_545  S
O964        C968   1.283       .  A
O965        C968   1.282       .  A
O966        H976   0.990       .  S
O967        H980   0.990       .  S
C968       C1093   1.432       .  S
Zr991       O992   2.439       .  S
Zr991       O993   2.452       .  S
Zr991       O994   2.441       .  S
Zr991       O997   2.430       .  S
Zr991       O999   2.382       .  S
Zr991      O1000   2.380   1_655  S
Zr991      O1001   2.410   1_655  S
Zr991      O1002   2.407   1_655  S
O992       H1048   0.990       .  S
O992       H1056   0.991       .  S
O993       C1013   1.286       .  A
O994       C1015   1.284       .  A
O995      Zr1005   2.430       .  S
O995       C1014   1.283       .  A
O996      Zr1004   2.425   1_655  S
O996       C1015   1.282       .  A
O997       C1014   1.282   1_655  A
O998      Zr1006   2.423       .  S
O998       C1013   1.280       .  A
O999      Zr1004   2.399   1_655  S
O999      Zr1006   2.375       .  S
O1000     Zr1005   2.385       .  S
O1000     Zr1006   2.373   1_455  S
O1000      H1035   0.966   1_455  S
O1001     Zr1004   2.399       .  S
O1001     Zr1021   2.401       .  S
O1001      H1038   0.966       .  S
O1002     Zr1005   2.386       .  S
O1002     Zr1021   2.393       .  S
Zr1003     O1028   2.446       .  S
Zr1003     O1022   2.452       .  S
Zr1003     O1030   2.431       .  S
Zr1003     O1018   2.430       .  S
Zr1003     O1009   2.404       .  S
Zr1003     O1010   2.408       .  S
Zr1003     O1011   2.375       .  S
Zr1003     O1012   2.383       .  S
Zr1004     O1023   2.430       .  S
Zr1004     O1016   2.435   1_455  S
Zr1004     O1017   2.435       .  S
Zr1004     O1010   2.393       .  S
Zr1004     O1011   2.378       .  S
Zr1005     O1007   2.434       .  S
Zr1005     O1029   2.434       .  S
Zr1005     O1031   2.428       .  S
Zr1005     O1009   2.393       .  S
Zr1005     O1012   2.387       .  S
Zr1006     O1032   2.427       .  S
Zr1006     O1033   2.435   1_655  S
Zr1006     O1008   2.436       .  S
Zr1006     O1009   2.399   1_655  S
Zr1006     O1010   2.390   1_655  S
O1007      H1044   0.990       .  S
O1008      H1039   0.990       .  S
O1008      H1053   0.990       .  S
O1010      H1036   0.966       .  S
O1011     Zr1021   2.373       .  S
O1012     Zr1021   2.377       .  S
O1012      H1037   0.966       .  S
C1013      C1059   1.442       .  S
C1014      C1104   1.435       .  S
C1015      C1057   1.435       .  S
O1016      H1052   0.990       .  S
O1017      C1019   1.284       .  A
O1018      C1019   1.282       .  A
C1019      C1097   1.434       .  S
O1020     Zr1021   2.441       .  S
O1020      H1049   0.990       .  S
Zr1021     O1024   2.430       .  S
Zr1021     O1025   2.439       .  S
Zr1021     O1026   2.427       .  S
O1022      C1027   1.287       .  A
O1023      H1040   0.989       .  S
O1023      H1055   0.990       .  S
O1024      H1041   0.990       .  S
O1025      H1045   0.990       .  S
O1025      H1054   0.989       .  S
O1026      C1027   1.281       .  A
C1027      C1065   1.445       .  S
O1028      H1047   0.990       .  S
O1028      H1051   0.990       .  S
O1029      H1043   0.990       .  S
O1029      H1050   0.989       .  S
O1030      C1034   1.283       .  A
O1031      C1034   1.282       .  A
O1032      H1042   0.990       .  S
O1033      H1046   0.990       .  S
C1034      C1063   1.433       .  S
C1057      C1058   1.206       .  T
C1059      C1060   1.211       .  T
C1061      C1062   1.206       .  T
C1063      C1064   1.204       .  T
C1065      C1066   1.212       .  T
C1067      C1068   1.205       .  T
C1069      C1070   1.204       .  T
C1071      C1072   1.204       .  T
C1073      C1074   1.211       .  T
C1075      C1076   1.206       .  T
C1077      C1078   1.205       .  T
C1079      C1080   1.210       .  T
C1081      C1082   1.203       .  T
C1083      C1084   1.204       .  T
C1085      C1086   1.212       .  T
C1087      C1088   1.206       .  T
C1089      C1090   1.205       .  T
C1091      C1092   1.210       .  T
C1093      C1094   1.204       .  T
C1095      C1096   1.213       .  T
C1097      C1098   1.205       .  T
C1099      C1100   1.206       .  T
C1101      C1102   1.211       .  T
C1103      C1104   1.205       .  T
