geometry optimzed in LAMMPS
_audit_creation_date              2020-12-01 
_audit_creation_method            'lammps2cif' 
_symmetry_space_group_name_H-M    'P1' 
_symmetry_Int_Tables_number       1 
_symmetry_cell_setting            triclinic 
loop_ 
_symmetry_equiv_pos_as_xyz 
  x,y,z 
_cell_length_a                    51.45518582 
_cell_length_b                    51.49184993708987 
_cell_length_c                    47.198234041719154 
_cell_angle_alpha                 89.98850065902053 
_cell_angle_beta                  90.06232931234524 
_cell_angle_gamma                 123.43038955484349 
loop_ 
_atom_site_label 
_atom_site_type_symbol 
_atom_site_fract_x 
_atom_site_fract_y 
_atom_site_fract_z 
_atom_site_charge 
N1          N  0.24994124  0.41235087  0.29359750    -0.27000
N2          N  0.22581755  0.38453974  0.28623520    -0.34900
C3          C  0.22760499  0.36269178  0.30025784     0.01300
C4          C  0.25430592  0.37775375  0.31680651     0.07300
C5          C  0.26777816  0.40902584  0.31192319    -0.05800
H6          H  0.21077369  0.33786564  0.29858617     0.08000
H7          H  0.28854854  0.42817890  0.32182831     0.09200
Cu8        Cu  0.19227495  0.37848945  0.25721337     0.44200
Cu9        Cu  0.25747093  0.45477311  0.28244144     0.42000
Cu10       Cu  0.19493206  0.45078375  0.25036255     0.43900
N11         N  0.16760747  0.38595675  0.22681435    -0.34400
N12         N  0.16885913  0.41227557  0.22527252    -0.28700
C13         C  0.15252947  0.41142126  0.20284183    -0.04800
C14         C  0.14016074  0.38325726  0.18943788     0.07400
C15         C  0.14995094  0.36740972  0.20516757     0.01200
H16         H  0.15011762  0.43022534  0.19661929     0.08900
H17         H  0.14489130  0.34438451  0.20108902     0.08000
N18         N  0.23224581  0.49212314  0.26510165    -0.35900
N19         N  0.25694474  0.49411922  0.27581642    -0.28100
C20         C  0.27940146  0.52425325  0.28009917    -0.03300
C21         C  0.26804522  0.54195824  0.27156133     0.05300
C22         C  0.23803142  0.52077619  0.26226194     0.03400
H23         H  0.30240102  0.53258194  0.28818348     0.08500
H24         H  0.22218204  0.52583220  0.25267721     0.07300
N25         N  0.36380231  0.31531156  0.45747721    -0.27000
N26         N  0.33638611  0.29128629  0.46588131    -0.34900
C27         C  0.31377054  0.29150418  0.45158809     0.01300
C28         C  0.32774124  0.31696796  0.43361851     0.07300
C29         C  0.35933060  0.33149247  0.43802885    -0.05800
H30         H  0.28909319  0.27427464  0.45391469     0.08000
H31         H  0.37786867  0.35178778  0.42709053     0.09200
Cu32       Cu  0.33091922  0.25865327  0.99565854     0.44200
Cu33       Cu  0.40706085  0.32440423  0.46899741     0.42000
Cu34       Cu  0.40179347  0.26056307  0.00178411     0.43900
N35         N  0.33645828  0.23097698  0.02402652    -0.34400
N36         N  0.36251120  0.23169494  0.02523210    -0.28700
C37         C  0.36050369  0.21305927  0.04610044    -0.04800
C38         C  0.33183753  0.19983837  0.05888272     0.07400
C39         C  0.31693956  0.21147580  0.04430243     0.01200
H40         H  0.37896212  0.20994079  0.05193756     0.08900
H41         H  0.29397907  0.20660089  0.04842153     0.08000
N42         N  0.44333380  0.29807906  0.98749865    -0.35900
N43         N  0.44607113  0.32312285  0.47675190    -0.28100
C44         C  0.47648257  0.34488339  0.47239510    -0.03300
C45         C  0.49345169  0.33258890  0.98076988     0.05300
C46         C  0.47161849  0.30289271  0.99014968     0.03400
H47         H  0.48550223  0.36789562  0.46401401     0.08500
H48         H  0.47598991  0.28642039  0.99940034     0.07300
N49         N  0.26163630  0.41742231  0.46150780    -0.27000
N50         N  0.23680176  0.39029799  0.46922747    -0.34900
C51         C  0.23597109  0.36754540  0.45416669     0.01300
C52         C  0.26167761  0.38128151  0.43644433     0.07300
C53         C  0.27730847  0.41276259  0.44176122    -0.05800
H54         H  0.21793874  0.34302595  0.45581119     0.08000
H55         H  0.29811264  0.43118079  0.43130452     0.09200
Cu56       Cu  0.20532124  0.38651223  0.99935243     0.44200
Cu57       Cu  0.27276157  0.46062880  0.47466180     0.42000
Cu58       Cu  0.21547779  0.46195603  0.01284359     0.43900
N59         N  0.17964693  0.39363103  0.02873961    -0.34400
N60         N  0.18331871  0.42092301  0.03260142    -0.28700
C61         C  0.16396610  0.41840189  0.05294236    -0.04800
C62         C  0.14730044  0.38819486  0.06261340     0.07400
C63         C  0.15764908  0.37291779  0.04684173     0.01200
H64         H  0.16248237  0.43742049  0.06039744     0.08900
H65         H  0.14985855  0.34869901  0.04839265     0.08000
N66         N  0.25389062  0.50191854  0.99704553    -0.35900
N67         N  0.27618792  0.50160347  0.48365883    -0.28100
C68         C  0.29890093  0.53089350  0.47678587    -0.03300
C69         C  0.29026601  0.55052335  0.98624517     0.05300
C70         C  0.26157125  0.53135873  0.99903157     0.03400
H71         H  0.31993696  0.53732825  0.46551545     0.08500
H72         H  0.24754608  0.53823425  0.00944606     0.07300
N73         N  0.89480403  0.24323482  0.28781879    -0.27000
N74         N  0.91747864  0.24034881  0.27896223    -0.34900
C75         C  0.91675130  0.21767690  0.29392639     0.01300
C76         C  0.89222415  0.20559904  0.31279591     0.07300
C77         C  0.87878162  0.22222031  0.30828250    -0.05800
H78         H  0.93289140  0.21061477  0.29128849     0.08000
H79         H  0.85939061  0.21992454  0.31969778     0.09200
Cu80       Cu  0.94862359  0.26782544  0.24740030     0.44200
Cu81       Cu  0.88804248  0.27739003  0.27428950     0.42000
Cu82       Cu  0.94820966  0.33659636  0.23075346     0.43900
N83         N  0.97700665  0.30040024  0.21711423    -0.34400
N84         N  0.97741116  0.32587882  0.21202338    -0.28700
C85         C  0.99822878  0.34233998  0.19158492    -0.04800
C86         C  0.01133548  0.32634928  0.18316315     0.07400
C87         C  0.99745720  0.29985764  0.19975486     0.01200
H88         H  0.00301740  0.36409159  0.18311428     0.08900
H89         H  0.00193856  0.28165188  0.19935834     0.08000
N90         N  0.91246348  0.33925545  0.24681793    -0.35900
N91         N  0.88949553  0.31678877  0.26200609    -0.28100
C92         C  0.86891938  0.32438202  0.26785969    -0.03300
C93         C  0.87962020  0.35311452  0.25584157     0.05300
C94         C  0.90732446  0.36189807  0.24273561     0.03400
H95         H  0.84784133  0.31007232  0.28003497     0.08500
H96         H  0.92225174  0.38278836  0.23050540     0.07300
N97         N  0.89454049  0.24163459  0.46110932    -0.27000
N98         N  0.92011249  0.24219266  0.46622868    -0.34900
C99         C  0.92015170  0.22083200  0.44983892     0.01300
C100        C  0.89320395  0.20612351  0.43382780     0.07300
C101        C  0.87751271  0.21980312  0.44151786    -0.05800
H102        H  0.93841333  0.21641158  0.44961171     0.08000
H103        H  0.85559171  0.21469352  0.43311375     0.09200
Cu104      Cu  0.95355440  0.27205328  0.49510556     0.44200
Cu105      Cu  0.88417292  0.27134318  0.47948363     0.42000
Cu106      Cu  0.94481551  0.33406691  0.01975053     0.43900
N107        N  0.98177007  0.30473082  0.02521599    -0.34400
N108        N  0.97938609  0.32802984  0.03293658    -0.28700
C109        C  0.99999991  0.34420456  0.05362191    -0.04800
C110        C  0.01570178  0.33012349  0.05951858     0.07400
C111        C  0.00372534  0.30520857  0.04114555     0.01200
H112        H  0.00209099  0.36368382  0.06467561     0.08900
H113        H  0.00988367  0.28825653  0.03990525     0.08000
N114        N  0.90314200  0.32954426  0.01136963    -0.35900
N115        N  0.88021398  0.30566646  0.49733152    -0.28100
C116        C  0.85601546  0.30882854  0.49573100    -0.03300
C117        C  0.86425011  0.33616764  0.50927200     0.05300
C118        C  0.89429351  0.34870108  0.01899432     0.03400
H119        H  0.83449076  0.29297106  0.48463053     0.08500
H120        H  0.90879776  0.37023920  0.03051915     0.07300
C121        C  0.76575750  0.45228067  0.50203788     0.80500
N122        N  0.73411426  0.43611755  0.50036177    -0.77800
C123        C  0.71970587  0.45170528  0.49900295     0.82900
N124        N  0.73702295  0.48323814  0.49941128    -0.77800
C125        C  0.76846999  0.49942202  0.50067665     0.83000
N126        N  0.78274492  0.48387218  0.50192894    -0.79500
N127        N  0.89797313  0.85545651  0.03283427    -0.27000
N128        N  0.92376669  0.88292494  0.02769120    -0.34900
C129        C  0.92430781  0.90425857  0.04474597     0.01300
C130        C  0.89756025  0.88927679  0.06114074     0.07300
C131        C  0.88147327  0.85854348  0.05289607    -0.05800
H132        H  0.94292637  0.92864836  0.04543484     0.08000
H133        H  0.85982442  0.83945438  0.06162672     0.09200
Cu134      Cu  0.95746749  0.88945544  0.99866733     0.44200
Cu135      Cu  0.88684113  0.81323993  0.01690587     0.42000
Cu136      Cu  0.94925067  0.81548680  0.48571690     0.43900
N137        N  0.98468050  0.88382662  0.46976555    -0.34400
N138        N  0.98155729  0.85676517  0.46615890    -0.28700
C139        C  0.00102090  0.85948819  0.44583899    -0.04800
C140        C  0.01731887  0.88962015  0.43588452     0.07400
C141        C  0.00652274  0.90464169  0.45152637     0.01200
H142        H  0.00264931  0.84055353  0.43839720     0.08900
H143        H  0.01369893  0.92865468  0.44960650     0.08000
N144        N  0.90974035  0.77423330  0.49820877    -0.35900
N145        N  0.88543904  0.77322069  0.00862408    -0.28100
C146        C  0.86231761  0.74341807  0.01311954    -0.03300
C147        C  0.87271690  0.72479232  0.00510564     0.05300
C148        C  0.90293910  0.74512998  0.49577028     0.03400
H149        H  0.83968661  0.73593679  0.02157837     0.08500
H150        H  0.91856369  0.73929449  0.48713275     0.07300
O151        O  0.11603897  0.39414006  0.09472850    -0.72700
O152        O  0.04905620  0.36411358  0.15211203    -0.73700
O153        O  0.11339780  0.39200922  0.15440791    -0.62300
O154        O  0.05150622  0.36614724  0.09274533    -0.70700
O155        O  0.04490021  0.31972422  0.09119969    -0.70300
O156        O  0.10742311  0.34586269  0.15433989    -0.61500
O157        O  0.04220693  0.31757283  0.15199663    -0.74000
O158        O  0.11012342  0.34803763  0.09346834    -0.72800
Cu159      Cu  0.08281507  0.38066250  0.12349042     1.04600
Cu160      Cu  0.07592361  0.33105072  0.12268680     1.04300
C161        C  0.12342010  0.37604618  0.08468924     0.93500
C162        C  0.03526110  0.33631654  0.16137949     0.92600
C163        C  0.11960997  0.37311741  0.16471446     0.84800
C164        C  0.03850832  0.33899026  0.08212410     0.91100
N165        N  0.18885229  0.94989423  0.28762352    -0.27000
N166        N  0.18651389  0.97303840  0.27913719    -0.34900
C167        C  0.16397232  0.97255458  0.29414773     0.01300
C168        C  0.15128193  0.94770404  0.31270982     0.07300
C169        C  0.16750329  0.93381905  0.30791353    -0.05800
H170        H  0.15733724  0.98904685  0.29168533     0.08000
H171        H  0.16457681  0.91395123  0.31894911     0.09200
Cu172      Cu  0.21416354  0.00439927  0.24768109     0.44200
Cu173      Cu  0.22240301  0.94210791  0.27315707     0.42000
Cu174      Cu  0.27978793  0.00045061  0.22660420     0.43900
N175        N  0.24629740  0.03296580  0.21710208    -0.34400
N176        N  0.27077805  0.03211853  0.21042232    -0.28700
C177        C  0.28739794  0.05360536  0.19047358    -0.04800
C178        C  0.27255081  0.06848229  0.18403290     0.07400
C179        C  0.24650354  0.05483235  0.20122169     0.01200
H180        H  0.30836423  0.05755356  0.18084748     0.08900
H181        H  0.22907242  0.06037957  0.20218637     0.08000
N182        N  0.28172267  0.96366444  0.24134622    -0.35900
N183        N  0.26021466  0.94154418  0.25791509    -0.28100
C184        C  0.26754845  0.92051512  0.26280716    -0.03300
C185        C  0.29507604  0.92999691  0.24869176     0.05300
C186        C  0.30334123  0.95748067  0.23537835     0.03400
H187        H  0.25397990  0.90002035  0.27586600     0.08500
H188        H  0.32341703  0.97179811  0.22201473     0.07300
C189        C  0.39503977  0.81389693  0.24985000     0.80500
N190        N  0.42653168  0.83084556  0.24637469    -0.77800
C191        C  0.44207464  0.81637851  0.24559082     0.82900
N192        N  0.42600947  0.78499539  0.24834769    -0.77800
C193        C  0.39472756  0.76793993  0.25204980     0.83000
N194        N  0.37931307  0.78247855  0.25276676    -0.79500
N195        N  0.79807352  0.95746056  0.20678641    -0.27000
N196        N  0.82586493  0.98066653  0.21550025    -0.34900
C197        C  0.84789614  0.97925440  0.20138193     0.01300
C198        C  0.83312572  0.95377871  0.18336507     0.07300
C199        C  0.80171157  0.94057043  0.18750412    -0.05800
H200        H  0.87272821  0.99561227  0.20393204     0.08000
H201        H  0.78273628  0.92073818  0.17640381     0.09200
Cu202      Cu  0.83259717  0.01340315  0.24605957     0.44200
Cu203      Cu  0.75529948  0.95012201  0.21744882     0.42000
Cu204      Cu  0.76090079  0.01004463  0.25652569     0.43900
N205        N  0.82766481  0.04035662  0.27611622    -0.34400
N206        N  0.80118113  0.03861078  0.27897703    -0.28700
C207        C  0.80388821  0.05750333  0.29986090    -0.04800
C208        C  0.83347111  0.07215545  0.31096680     0.07400
C209        C  0.84817796  0.06087747  0.29543269     0.01200
H210        H  0.78542374  0.06025435  0.30654322     0.08900
H211        H  0.87184134  0.06706974  0.29796596     0.08000
N212        N  0.71916939  0.97515602  0.23967707    -0.35900
N213        N  0.71644225  0.95152243  0.22586560    -0.28100
C214        C  0.68613647  0.93074487  0.22001810    -0.03300
C215        C  0.66909185  0.94205641  0.23079161     0.05300
C216        C  0.69091298  0.97035124  0.24298414     0.03400
H217        H  0.67718393  0.90877864  0.20936954     0.08500
H218        H  0.68649138  0.98562138  0.25464517     0.07300
N219        N  0.35659172  0.31523150  0.28470418    -0.27000
N220        N  0.32948939  0.28906450  0.27936463    -0.34900
C221        C  0.30752141  0.28808985  0.29589300     0.01300
C222        C  0.32175726  0.31503764  0.31207010     0.07300
C223        C  0.35265553  0.33155822  0.30427212    -0.05800
H224        H  0.28326239  0.26908777  0.29638247     0.08000
H225        H  0.37134986  0.35340666  0.31309552     0.09200
Cu226      Cu  0.32485568  0.25595416  0.25055393     0.44200
Cu227      Cu  0.39963129  0.32734374  0.26994510     0.42000
Cu228      Cu  0.39974268  0.26496421  0.24203641     0.43900
N229        N  0.33312806  0.23045846  0.22180089    -0.34400
N230        N  0.36037456  0.23361177  0.21993924    -0.28700
C231        C  0.35953770  0.21566753  0.19897157    -0.04800
C232        C  0.33044479  0.20040757  0.18678191     0.07400
C233        C  0.31406243  0.21009707  0.20176896     0.01200
H234        H  0.37905589  0.21445825  0.19264724     0.08900
H235        H  0.29030758  0.20320429  0.19817086     0.08000
N236        N  0.44009832  0.30543525  0.25370022    -0.35900
N237        N  0.44049832  0.32982931  0.26285172    -0.28100
C238        C  0.47021769  0.35364081  0.26666360    -0.03300
C239        C  0.48929363  0.34349023  0.25944433     0.05300
C240        C  0.46936476  0.31279976  0.25130303     0.03400
H241        H  0.47733938  0.37656443  0.27398891     0.08500
H242        H  0.47552946  0.29716921  0.24339125     0.07300
C243        C  0.76074873  0.44882434  0.25347311     0.80500
N244        N  0.77754058  0.48039331  0.25274650    -0.77800
C245        C  0.76295883  0.49565867  0.25055934     0.82900
N246        N  0.73140112  0.47918924  0.24929041    -0.77800
C247        C  0.71446140  0.44762691  0.25017010     0.83000
N248        N  0.72922841  0.43255110  0.25220714    -0.79500
N249        N  0.89965874  0.85357818  0.20999569    -0.27000
N250        N  0.92459148  0.88107658  0.21685970    -0.34900
C251        C  0.92492426  0.90307068  0.20093752     0.01300
C252        C  0.89880538  0.88847853  0.18362820     0.07300
C253        C  0.88347634  0.85728426  0.19001576    -0.05800
H254        H  0.94266656  0.92772265  0.20201422     0.08000
H255        H  0.86225417  0.83841112  0.18043423     0.09200
Cu256      Cu  0.95644889  0.88681937  0.24782815     0.44200
Cu257      Cu  0.88795371  0.81085660  0.22524978     0.42000
Cu258      Cu  0.94275670  0.81135341  0.26823864     0.43900
N259        N  0.98173938  0.88108341  0.27904034    -0.34400
N260        N  0.97651666  0.85355193  0.28537271    -0.28700
C261        C  0.99626175  0.85685860  0.30568543    -0.04800
C262        C  0.01495601  0.88785866  0.31278633     0.07400
C263        C  0.00517459  0.90277700  0.29560599     0.01200
H264        H  0.99679551  0.83785581  0.31476431     0.08900
H265        H  0.01453109  0.92742696  0.29496900     0.08000
N266        N  0.90469487  0.77040383  0.25327323    -0.35900
N267        N  0.88321778  0.77006634  0.23773725    -0.28100
C268        C  0.86059346  0.74043211  0.23171211    -0.03300
C269        C  0.86844378  0.72123915  0.24402512     0.05300
C270        C  0.89659123  0.74106224  0.25755025     0.03400
H271        H  0.84017039  0.73345313  0.21910052     0.08500
H272        H  0.90999750  0.73472980  0.26992060     0.07300
N273        N  0.18251371  0.94771329  0.46443812    -0.27000
N274        N  0.18250438  0.97282054  0.47022620    -0.34900
C275        C  0.16239700  0.97382902  0.45270932     0.01300
C276        C  0.14920338  0.94799269  0.43527467     0.07300
C277        C  0.16235765  0.93194460  0.44335630    -0.05800
H278        H  0.15784474  0.99198833  0.45264568     0.08000
H279        H  0.15818481  0.91072759  0.43412582     0.09200
Cu280      Cu  0.21093862  0.00462291  0.50089754     0.44200
Cu281      Cu  0.21196502  0.93710752  0.48269056     0.42000
Cu282      Cu  0.27532017  0.99721301  0.02226696     0.43900
N283        N  0.24468818  0.03281837  0.03037573    -0.34400
N284        N  0.26857505  0.03089587  0.03701022    -0.28700
C285        C  0.28607378  0.05251841  0.05661390    -0.04800
C286        C  0.27235947  0.06850200  0.06282848     0.07400
C287        C  0.24616853  0.05548946  0.04590747     0.01200
H288        H  0.30661353  0.05555480  0.06638070     0.08900
H289        H  0.22931103  0.06180914  0.04507650     0.08000
N290        N  0.27287658  0.95740795  0.00987278    -0.35900
N291        N  0.24858203  0.93455713  0.49619252    -0.28100
C292        C  0.25307680  0.91161759  0.49136589    -0.03300
C293        C  0.28171305  0.92051594  0.50245585     0.05300
C294        C  0.29368870  0.94972474  0.01405570     0.03400
H295        H  0.23700809  0.89040989  0.47995897     0.08500
H296        H  0.31580193  0.96432618  0.02472888     0.07300
C297        C  0.39816202  0.82295495  0.48558644     0.80500
N298        N  0.38135628  0.79139554  0.48501367    -0.77800
C299        C  0.39589920  0.77608923  0.48279165     0.82900
N300        N  0.42746070  0.79254574  0.48114448    -0.77800
C301        C  0.44440235  0.82413840  0.48143993     0.83000
N302        N  0.42964123  0.83920344  0.48366855    -0.79500
N303        N  0.79892353  0.95469931  0.03611452    -0.27000
N304        N  0.82667504  0.97915048  0.02910990    -0.34900
C305        C  0.84845266  0.97872341  0.04470359     0.01300
C306        C  0.83346795  0.95269995  0.06202597     0.07300
C307        C  0.80225242  0.93803720  0.05585129    -0.05800
H308        H  0.87318771  0.99623321  0.04379803     0.08000
H309        H  0.78310910  0.91737886  0.06586083     0.09200
Cu310      Cu  0.83309176  0.01251062  0.49959042     0.44200
Cu311      Cu  0.75655961  0.94570440  0.02267104     0.42000
Cu312      Cu  0.76048206  0.00796266  0.48877234     0.43900
N313        N  0.82814951  0.04066134  0.47112890    -0.34400
N314        N  0.80167093  0.03899622  0.46850031    -0.28700
C315        C  0.80457379  0.05855228  0.44819312    -0.04800
C316        C  0.83419944  0.07338240  0.43716693     0.07400
C317        C  0.84877790  0.06167525  0.45223378     0.01200
H318        H  0.78600403  0.06110739  0.44139123     0.08900
H319        H  0.87228467  0.06754021  0.44936784     0.08000
N320        N  0.71870046  0.96885031  0.50076026    -0.35900
N321        N  0.71708223  0.94476947  0.01250547    -0.28100
C322        C  0.68703622  0.92137886  0.01512629    -0.03300
C323        C  0.66890449  0.93132998  0.00438181     0.05300
C324        C  0.68977728  0.96161381  0.49552355     0.03400
H325        H  0.67907971  0.89861058  0.02352157     0.08500
H326        H  0.68451506  0.97675994  0.48480193     0.07300
O327        O  0.90197303  0.17468737  0.40347444    -0.72700
O328        O  0.87314922  0.10832032  0.34323468    -0.73700
O329        O  0.90141576  0.17404937  0.34276972    -0.62300
O330        O  0.87355450  0.10900504  0.40439491    -0.70700
O331        O  0.82744638  0.10311428  0.40376220    -0.70300
O332        O  0.85497214  0.16744386  0.34393659    -0.61500
O333        O  0.82711834  0.10259433  0.34391096    -0.74000
O334        O  0.85536230  0.16774690  0.40314134    -0.72800
Cu335      Cu  0.88927298  0.14173959  0.37346135     1.04600
Cu336      Cu  0.83966687  0.13486589  0.37367588     1.04300
C337        C  0.88313769  0.18166001  0.41256352     0.93500
C338        C  0.84535065  0.09535790  0.33385565     0.92600
C339        C  0.88250895  0.18112072  0.33403115     0.84800
C340        C  0.84585687  0.09619160  0.41398057     0.91100
O341        O  0.87452855  0.96106402  0.15376279    -0.72700
O342        O  0.90598781  0.92961727  0.09268463    -0.73700
O343        O  0.87435416  0.96079808  0.09275448    -0.62300
O344        O  0.90643110  0.92968398  0.15359103    -0.70700
O345        O  0.86069776  0.88439423  0.15284625    -0.70300
O346        O  0.82902706  0.91509381  0.09365471    -0.61500
O347        O  0.86023127  0.88433870  0.09341732    -0.74000
O348        O  0.82923387  0.91534558  0.15306094    -0.72800
Cu349      Cu  0.89205578  0.94701434  0.12324222     1.04600
Cu350      Cu  0.84335711  0.89831883  0.12330821     1.04300
C351        C  0.84655792  0.94300014  0.16264645     0.93500
C352        C  0.88765584  0.90188101  0.08341546     0.92600
C353        C  0.84647802  0.94253809  0.08370585     0.84800
C354        C  0.88834356  0.90175712  0.16248701     0.91100
O355        O  0.26384796  0.10002374  0.15354653    -0.72700
O356        O  0.29309670  0.16549654  0.09241461    -0.73700
O357        O  0.26414821  0.10016638  0.09301180    -0.62300
O358        O  0.29244719  0.16542771  0.15335774    -0.70700
O359        O  0.33868913  0.17154799  0.15334377    -0.70300
O360        O  0.31040606  0.10629222  0.09389730    -0.61500
O361        O  0.33907401  0.17107304  0.09316480    -0.74000
O362        O  0.31032927  0.10668067  0.15323165    -0.72800
Cu363      Cu  0.27671813  0.13262445  0.12307610     1.04600
Cu364      Cu  0.32625029  0.13927585  0.12343588     1.04300
C365        C  0.28260833  0.09296039  0.16272086     0.93500
C366        C  0.32069568  0.17793485  0.08272988     0.92600
C367        C  0.28277525  0.09287774  0.08414965     0.84800
C368        C  0.31997718  0.17824416  0.16326307     0.91100
O369        O  0.11946147  0.95700234  0.34244588    -0.72700
O370        O  0.05378918  0.92919191  0.40371690    -0.73700
O371        O  0.11941284  0.95764895  0.40342418    -0.62300
O372        O  0.05338393  0.92863990  0.34278599    -0.70700
O373        O  0.04744063  0.88253960  0.34388916    -0.70300
O374        O  0.11243677  0.91105635  0.40313516    -0.61500
O375        O  0.04785127  0.88309257  0.40332593    -0.74000
O376        O  0.11261917  0.91051378  0.34377570    -0.72800
Cu377      Cu  0.08680764  0.94491628  0.37301456     1.04600
Cu378      Cu  0.07981593  0.89529940  0.37347679     1.04300
C379        C  0.12653476  0.93805094  0.33383413     0.93500
C380        C  0.04074857  0.90144966  0.41324122     0.92600
C381        C  0.12597712  0.93863887  0.41289140     0.84800
C382        C  0.03986121  0.90057298  0.33406033     0.91100
O383        O  0.24906412  0.33709503  0.34608884    -0.72700
O384        O  0.28487741  0.30818341  0.40538130    -0.73700
O385        O  0.25246966  0.33904494  0.40686579    -0.62300
O386        O  0.28165884  0.30646129  0.34439635    -0.70700
O387        O  0.32627639  0.35278421  0.34328485    -0.70300
O388        O  0.29811667  0.38430682  0.40441099    -0.61500
O389        O  0.32993439  0.35397326  0.40250097    -0.74000
O390        O  0.29434115  0.38284724  0.34539174    -0.72800
Cu391      Cu  0.26528745  0.32090635  0.37576664     1.04600
Cu392      Cu  0.31358889  0.36989774  0.37383262     1.04300
C393        C  0.26631432  0.36496603  0.33681671     0.93500
C394        C  0.31327798  0.32670341  0.41300833     0.92600
C395        C  0.27100603  0.36720837  0.41510090     0.84800
C396        C  0.30893060  0.32497445  0.33415138     0.91100
C397        C  0.53300395  0.88087713  0.98229818     0.16200
C398        C  0.56357587  0.90712116  0.98283232    -0.32800
C399        C  0.58723034  0.90265059  0.99016736     0.20600
C400        C  0.58080939  0.87337440  0.99653416     0.02800
C401        C  0.55029954  0.84705527  0.99551722    -0.22600
C402        C  0.52661906  0.85153647  0.98831893     0.12000
S403        S  0.50086652  0.88169263  0.97582624    -0.06200
C404        C  0.47857665  0.84206723  0.48132504    -0.09700
C405        C  0.49540773  0.82907483  0.48744299    -0.26300
S406        S  0.61263539  0.87300461  0.00579520    -0.03500
C407        C  0.63489191  0.91269849  0.00077844    -0.17000
C408        C  0.61826612  0.92531939  0.99245547    -0.14900
H409        H  0.56863500  0.93008160  0.97826614     0.20400
H410        H  0.54517674  0.82417561  0.50060317     0.16500
H411        H  0.48529412  0.80471219  0.49207629     0.19000
H412        H  0.62825473  0.94976799  0.98844825     0.12300
C413        C  0.30998627  0.86588035  0.49418689     0.16200
C414        C  0.31314570  0.84104454  0.48856991    -0.32800
C415        C  0.34295245  0.84661732  0.49109024     0.20600
C416        C  0.36846014  0.87559617  0.49884638     0.02800
C417        C  0.36519291  0.90024987  0.00493974    -0.22600
C418        C  0.33541206  0.89469191  0.50240998     0.12000
S419        S  0.27617001  0.86435666  0.49098840    -0.06200
C420        C  0.29647038  0.90289879  0.50103733    -0.09700
C421        C  0.32774873  0.91597140  0.00662672    -0.26300
S422        S  0.40286088  0.87805962  0.99957296    -0.03700
C423        C  0.38263784  0.83952690  0.48961901    -0.17000
C424        C  0.35090842  0.82568823  0.48599374    -0.14900
H425        H  0.29335195  0.81852480  0.48211420     0.20400
H426        H  0.38507308  0.92289909  0.01098385     0.16500
H427        H  0.34419578  0.93994308  0.01275573     0.19000
H428        H  0.33463481  0.80175437  0.47961045     0.12300
C429        C  0.81958877  0.58422648  0.25222951     0.16200
C430        C  0.84514390  0.61488100  0.25555354    -0.32800
C431        C  0.84082328  0.63880530  0.24907441     0.20600
C432        C  0.81247786  0.63256910  0.23935882     0.02800
C433        C  0.78686263  0.60189737  0.23616014    -0.22600
C434        C  0.79107334  0.57796408  0.24299737     0.12000
S435        S  0.82005387  0.55197012  0.25905793    -0.06200
C436        C  0.78127300  0.52979835  0.24978296    -0.09700
C437        C  0.76890514  0.54672305  0.24171381    -0.26300
S438        S  0.81214395  0.66490230  0.23244341    -0.03500
C439        C  0.85046054  0.68704049  0.24323140    -0.17000
C440        C  0.86267998  0.67002506  0.25145075    -0.14900
H441        H  0.86736534  0.61986759  0.26301068     0.20400
H442        H  0.76460137  0.59690916  0.22882795     0.16500
H443        H  0.74502640  0.53670949  0.23513216     0.19000
H444        H  0.88629636  0.67990744  0.25874563     0.12300
C445        C  0.57793616  0.40023241  0.25867183     0.16200
C446        C  0.60864559  0.42621586  0.25896008    -0.32800
C447        C  0.63236970  0.42111279  0.25427370     0.20600
C448        C  0.62587872  0.39149390  0.24962276     0.02800
C449        C  0.59518172  0.36556362  0.24910589    -0.22600
C450        C  0.57148036  0.37068653  0.25370916     0.12000
S451        S  0.54581442  0.40140446  0.26397155    -0.06200
C452        C  0.52347850  0.36170219  0.25906967    -0.09700
C453        C  0.54027871  0.34848468  0.25389842    -0.26300
S454        S  0.65793682  0.39004839  0.24539821    -0.03500
C455        C  0.68033757  0.42981084  0.24988104    -0.17000
C456        C  0.66363375  0.44327703  0.25419556    -0.14900
H457        H  0.61382799  0.44935123  0.26278300     0.20400
H458        H  0.59000280  0.34240452  0.24542860     0.16500
H459        H  0.53028841  0.32395987  0.25035174     0.19000
H460        H  0.67382517  0.46785515  0.25773336     0.12300
C461        C  0.52880971  0.85101958  0.23275310     0.16200
C462        C  0.55776598  0.85589448  0.22650103    -0.32800
C463        C  0.58424373  0.88602165  0.22992253     0.20600
C464        C  0.58208216  0.91026916  0.23934126     0.02800
C465        C  0.55300590  0.90547459  0.24531493    -0.22600
C466        C  0.52642442  0.87529072  0.24168554     0.12000
S467        S  0.49421666  0.81592670  0.23064514    -0.06200
C468        C  0.47605119  0.83404550  0.24148828    -0.09700
C469        C  0.49605854  0.86572467  0.24652495    -0.26300
S470        S  0.61722127  0.94475596  0.24324409    -0.03500
C471        C  0.63493265  0.92627974  0.23186416    -0.17000
C472        C  0.61441458  0.89509591  0.22536681    -0.14900
H473        H  0.55959872  0.83693447  0.21950157     0.20400
H474        H  0.55120816  0.92434441  0.25267318     0.16500
H475        H  0.48884534  0.88076766  0.25379454     0.19000
H476        H  0.62117621  0.87960986  0.21837787     0.12300
C477        C  0.34097115  0.84351823  0.25564281     0.16200
C478        C  0.31628496  0.84722859  0.26044999    -0.32800
C479        C  0.32100997  0.87609312  0.25372319     0.20600
C480        C  0.34896449  0.90008448  0.24243962     0.02800
C481        C  0.37373364  0.89645684  0.23784153    -0.22600
C482        C  0.36911757  0.86770488  0.24483380     0.12000
S483        S  0.33979961  0.81025907  0.26215572    -0.06200
C484        C  0.37782878  0.82924230  0.25060223    -0.09700
C485        C  0.39043297  0.85972610  0.24206037    -0.26300
S486        S  0.34983676  0.93304971  0.23517101    -0.03500
C487        C  0.31226341  0.91455807  0.24785988    -0.17000
C488        C  0.29991796  0.88430686  0.25703288    -0.14900
H489        H  0.29435329  0.82843581  0.26906139     0.20400
H490        H  0.39565323  0.91523490  0.22919645     0.16500
H491        H  0.41384835  0.87514739  0.23402070     0.19000
H492        H  0.27668161  0.86902275  0.26547866     0.12300
C493        C  0.82526678  0.58798181  0.49912570     0.16200
C494        C  0.85112978  0.61869178  0.49736717    -0.32800
C495        C  0.84604782  0.64253503  0.50132197     0.20600
C496        C  0.81660649  0.63613692  0.00689505     0.02800
C497        C  0.79073707  0.60546689  0.00843027    -0.22600
C498        C  0.79579095  0.58165879  0.00435144     0.12000
S499        S  0.82649242  0.55570904  0.49541513    -0.06200
C500        C  0.78682677  0.53354826  0.50075501    -0.09700
C501        C  0.77360899  0.55046669  0.00512864    -0.26300
S502        S  0.81533698  0.66825108  0.01138538    -0.03500
C503        C  0.85486904  0.69061066  0.00536949    -0.17000
C504        C  0.86812815  0.67380832  0.50033314    -0.14900
H505        H  0.87417939  0.62377694  0.49316874     0.20400
H506        H  0.76769136  0.60037878  0.01266720     0.16500
H507        H  0.74909921  0.54047415  0.00896109     0.19000
H508        H  0.89258242  0.68386111  0.49621536     0.12300
C509        C  0.81853369  0.42203030  0.01123756     0.16200
C510        C  0.84353047  0.41886968  0.01567935    -0.32800
C511        C  0.83771385  0.38902590  0.51332520     0.20600
C512        C  0.80833001  0.36339536  0.50679157     0.02800
C513        C  0.78315391  0.36648699  0.50276186    -0.22600
C514        C  0.78898065  0.39641259  0.50512604     0.12000
S515        S  0.82124579  0.45646008  0.51229590    -0.06200
C516        C  0.78202281  0.43623047  0.50472345    -0.09700
C517        C  0.76778937  0.40440431  0.50149793    -0.26300
S518        S  0.80667916  0.32953822  0.50316366    -0.03500
C519        C  0.84597575  0.35022462  0.51058243    -0.17000
C520        C  0.85931249  0.38155712  0.51587630    -0.14900
H521        H  0.86662548  0.43888788  0.02035305     0.20400
H522        H  0.76018769  0.34656054  0.49757276     0.16500
H523        H  0.74340696  0.38809415  0.49652764     0.19000
H524        H  0.88375956  0.39827191  0.52025018     0.12300
C525        C  0.84998738  0.40695561  0.25286109     0.16200
C526        C  0.84636838  0.43183496  0.24979951    -0.32800
C527        C  0.81644872  0.42563047  0.25355707     0.20600
C528        C  0.79120389  0.39598294  0.25993679     0.02800
C529        C  0.79489927  0.37119848  0.26336138    -0.22600
C530        C  0.82484729  0.37743460  0.25974993     0.12000
S531        S  0.88413927  0.40939660  0.24824952    -0.06200
C532        C  0.86438980  0.37029746  0.25604555    -0.09700
C533        C  0.83303256  0.35634655  0.26185563    -0.26300
S534        S  0.75663718  0.39303797  0.26264446    -0.03500
C535        C  0.77649284  0.43226101  0.25539704    -0.17000
C536        C  0.80818349  0.44662728  0.25113712    -0.14900
H537        H  0.86594159  0.45493783  0.24447579     0.20400
H538        H  0.77525961  0.34802635  0.26838412     0.16500
H539        H  0.81692316  0.33194866  0.26678056     0.19000
H540        H  0.82423545  0.47102155  0.24611873     0.12300
C541        C  0.34647130  0.63876580  0.47879747     0.16200
C542        C  0.37238996  0.66926122  0.47568312    -0.32800
C543        C  0.36786302  0.69347038  0.47958260     0.20600
C544        C  0.33878068  0.68761353  0.48594293     0.02800
C545        C  0.31287225  0.65712535  0.48907746    -0.22600
C546        C  0.31748730  0.63293951  0.48554734     0.12000
S547        S  0.34721670  0.60621933  0.47546179    -0.06200
C548        C  0.30818615  0.58457462  0.98376510    -0.09700
C549        C  0.29541054  0.60185425  0.98850126    -0.26300
S550        S  0.33811342  0.72015018  0.98976434    -0.03500
C551        C  0.37751528  0.74191560  0.48296820    -0.17000
C552        C  0.39024753  0.72463208  0.47795702    -0.14900
H553        H  0.39512327  0.67392008  0.47068883     0.20400
H554        H  0.29019140  0.65247344  0.99430034     0.16500
H555        H  0.27130973  0.59224957  0.99389736     0.19000
H556        H  0.41455286  0.73432827  0.47335220     0.12300
C557        C  0.57972040  0.36173322  0.48729081     0.16200
C558        C  0.60833985  0.36488718  0.49134506    -0.32800
C559        C  0.63518766  0.39513938  0.49240992     0.20600
C560        C  0.63348339  0.42098664  0.48963860     0.02800
C561        C  0.60496581  0.41782752  0.98533815    -0.22600
C562        C  0.57819744  0.38764905  0.48415944     0.12000
S563        S  0.54440842  0.32720636  0.48647942    -0.06200
C564        C  0.52745946  0.34793188  0.98174532    -0.09700
C565        C  0.54829761  0.37988812  0.98067702    -0.26300
S566        S  0.66835292  0.45565608  0.99182061    -0.03500
C567        C  0.68570970  0.43529649  0.49616622    -0.17000
C568        C  0.66522975  0.40320004  0.49614199    -0.14900
H569        H  0.60958776  0.34468664  0.49376004     0.20400
H570        H  0.60369117  0.43803712  0.98316272     0.16500
H571        H  0.54189311  0.39659116  0.97837053     0.19000
H572        H  0.67192911  0.38673635  0.49858909     0.12300
C573        C  0.36163656  0.68119753  0.26276938     0.16200
C574        C  0.35701400  0.65204955  0.26738487    -0.32800
C575        C  0.32624694  0.62603553  0.26787106     0.20600
C576        C  0.30122733  0.62888133  0.26377139     0.02800
C577        C  0.30584070  0.65802801  0.25938057    -0.22600
C578        C  0.33657373  0.68405008  0.25905061     0.12000
S579        S  0.39710356  0.71554140  0.26109911    -0.06200
C580        C  0.37793854  0.73399925  0.25565557    -0.09700
C581        C  0.34576724  0.71431191  0.25507681    -0.26300
S582        S  0.26579643  0.59449334  0.26408368    -0.03500
C583        C  0.28483649  0.57603464  0.26998390    -0.17000
C584        C  0.31696565  0.59572617  0.27168195    -0.14900
H585        H  0.37652415  0.64973660  0.27032895     0.20400
H586        H  0.28633677  0.66030469  0.25620523     0.16500
H587        H  0.32995337  0.72171175  0.25177612     0.19000
H588        H  0.33274116  0.58826139  0.27481931     0.12300
N589        N  0.24994168  0.41235126  0.79359763    -0.27000
N590        N  0.22581845  0.38454010  0.78623472    -0.34900
C591        C  0.22760572  0.36269212  0.80025749     0.01300
C592        C  0.25430606  0.37775409  0.81680690     0.07300
C593        C  0.26777813  0.40902621  0.81192391    -0.05800
H594        H  0.21077476  0.33786596  0.79858531     0.08000
H595        H  0.28854814  0.42817925  0.82182949     0.09200
Cu596      Cu  0.19227657  0.37848953  0.75721200     0.44200
Cu597      Cu  0.25747176  0.45477359  0.78244127     0.42000
Cu598      Cu  0.19493435  0.45078412  0.75035975     0.43900
N599        N  0.16760895  0.38595639  0.72681293    -0.34400
N600        N  0.16886097  0.41227537  0.72527054    -0.28700
C601        C  0.15253077  0.41142056  0.70284013    -0.04800
C602        C  0.14016127  0.38325604  0.68943697     0.07400
C603        C  0.14995160  0.36740872  0.70516680     0.01200
H604        H  0.15011901  0.43022461  0.69661728     0.08900
H605        H  0.14489143  0.34438322  0.70108884     0.08000
N606        N  0.23224714  0.49212355  0.76509989    -0.35900
N607        N  0.25694567  0.49411969  0.77581579    -0.28100
C608        C  0.27940193  0.52425370  0.78009937    -0.03300
C609        C  0.26804579  0.54195860  0.77156095     0.05300
C610        C  0.23803252  0.52077653  0.76226032     0.03400
H611        H  0.30240113  0.53258248  0.78818473     0.08500
H612        H  0.22218344  0.52583254  0.75267488     0.07300
N613        N  0.36380156  0.31531179  0.95747778    -0.27000
N614        N  0.33638541  0.29128630  0.96588168    -0.34900
C615        C  0.31376977  0.29150414  0.95158857     0.01300
C616        C  0.32774038  0.31696809  0.93361924     0.07300
C617        C  0.35932974  0.33149280  0.93802963    -0.05800
H618        H  0.28909244  0.27427438  0.95391501     0.08000
H619        H  0.37786776  0.35178824  0.92709141     0.09200
Cu620      Cu  0.33091973  0.25865351  0.49565870     0.44200
Cu621      Cu  0.40706019  0.32440452  0.96899761     0.42000
Cu622      Cu  0.40179378  0.26056302  0.50178488     0.43900
N623        N  0.33645854  0.23097722  0.52402705    -0.34400
N624        N  0.36251140  0.23169507  0.52523277    -0.28700
C625        C  0.36050378  0.21305942  0.54610118    -0.04800
C626        C  0.33183757  0.19983857  0.55888336     0.07400
C627        C  0.31693973  0.21147606  0.54430294     0.01200
H628        H  0.37896215  0.20994087  0.55193839     0.08900
H629        H  0.29397920  0.20660114  0.54842191     0.08000
N630        N  0.44333423  0.29807887  0.48749967    -0.35900
N631        N  0.44607054  0.32312311  0.97675123    -0.28100
C632        C  0.47648193  0.34488374  0.97239425    -0.03300
C633        C  0.49345217  0.33258852  0.48077120     0.05300
C634        C  0.47161886  0.30289244  0.49015111     0.03400
H635        H  0.48550143  0.36789606  0.96401346     0.08500
H636        H  0.47599012  0.28642013  0.49940205     0.07300
N637        N  0.26163664  0.41742312  0.96150836    -0.27000
N638        N  0.23680161  0.39029894  0.96922760    -0.34900
C639        C  0.23597058  0.36754626  0.95416669     0.01300
C640        C  0.26167733  0.38128212  0.93644464     0.07300
C641        C  0.27730871  0.41276318  0.94176187    -0.05800
H642        H  0.21793783  0.34302689  0.95581092     0.08000
H643        H  0.29811326  0.43118123  0.93130550     0.09200
Cu644      Cu  0.20532148  0.38651111  0.49935261     0.44200
Cu645      Cu  0.27276293  0.46062981  0.97466302     0.42000
Cu646      Cu  0.21547540  0.46195415  0.51284170     0.43900
N647        N  0.17964655  0.39362966  0.52873935    -0.34400
N648        N  0.18331731  0.42092129  0.53260034    -0.28700
C649        C  0.16396451  0.41840006  0.55294114    -0.04800
C650        C  0.14729979  0.38819332  0.56261299     0.07400
C651        C  0.15764918  0.37291655  0.54684189     0.01200
H652        H  0.16248003  0.43741840  0.56039559     0.08900
H653        H  0.14985951  0.34869806  0.54839352     0.08000
N654        N  0.25388796  0.50191683  0.49704350    -0.35900
N655        N  0.27619022  0.50160487  0.98366049    -0.28100
C656        C  0.29890322  0.53089481  0.97678718    -0.03300
C657        C  0.29026338  0.55052181  0.48624371     0.05300
C658        C  0.26156838  0.53135695  0.49902963     0.03400
H659        H  0.31993891  0.53732930  0.96551625     0.08500
H660        H  0.24754303  0.53823230  0.50944405     0.07300
N661        N  0.89480218  0.24323296  0.78781798    -0.27000
N662        N  0.91747661  0.24034673  0.77896129    -0.34900
C663        C  0.91674976  0.21767538  0.79392600     0.01300
C664        C  0.89222310  0.20559811  0.81279604     0.07300
C665        C  0.87878036  0.22221914  0.80828234    -0.05800
H666        H  0.93288982  0.21061321  0.79128811     0.08000
H667        H  0.85938957  0.21992364  0.81969781     0.09200
Cu668      Cu  0.94862097  0.26782264  0.74739870     0.44200
Cu669      Cu  0.88804020  0.27738767  0.77428794     0.42000
Cu670      Cu  0.94820815  0.33659423  0.73075237     0.43900
N671        N  0.97700487  0.30039781  0.71711318    -0.34400
N672        N  0.97740991  0.32587672  0.71202263    -0.28700
C673        C  0.99822816  0.34233817  0.69158467    -0.04800
C674        C  0.01133473  0.32634734  0.68316291     0.07400
C675        C  0.99745569  0.29985528  0.69975411     0.01200
H676        H  0.00301725  0.36409007  0.68311431     0.08900
H677        H  0.00193670  0.28164929  0.69935744     0.08000
N678        N  0.91246156  0.33925313  0.74681623    -0.35900
N679        N  0.88949338  0.31678637  0.76200415    -0.28100
C680        C  0.86891729  0.32437971  0.76785768    -0.03300
C681        C  0.87961836  0.35311237  0.75583979     0.05300
C682        C  0.90732271  0.36189589  0.74273401     0.03400
H683        H  0.84783924  0.31007008  0.78003297     0.08500
H684        H  0.92225031  0.38278641  0.73050418     0.07300
N685        N  0.89453998  0.24163477  0.96110967    -0.27000
N686        N  0.92011185  0.24219269  0.96622934    -0.34900
C687        C  0.92015104  0.22083187  0.94983978     0.01300
C688        C  0.89320341  0.20612344  0.93382848     0.07300
C689        C  0.87751224  0.21980323  0.94151824    -0.05800
H690        H  0.93841258  0.21641134  0.94961279     0.08000
H691        H  0.85559138  0.21469374  0.93311390     0.09200
Cu692      Cu  0.95355364  0.27205345  0.99510631     0.44200
Cu693      Cu  0.88417262  0.27134373  0.97948347     0.42000
Cu694      Cu  0.94481590  0.33406626  0.51975064     0.43900
N695        N  0.98177049  0.30473020  0.52521557    -0.34400
N696        N  0.97938637  0.32802905  0.53293646    -0.28700
C697        C  0.99999989  0.34420341  0.55362207    -0.04800
C698        C  0.01570169  0.33012226  0.55951860     0.07400
C699        C  0.00372556  0.30520769  0.54114521     0.01200
H700        H  0.00209078  0.36368244  0.56467604     0.08900
H701        H  0.00988397  0.28825571  0.53990469     0.08000
N702        N  0.90314243  0.32954359  0.51137007    -0.35900
N703        N  0.88021362  0.30566707  0.99733108    -0.28100
C704        C  0.85601507  0.30882910  0.99573033    -0.03300
C705        C  0.86424958  0.33616823  0.00927119     0.05300
C706        C  0.89429404  0.34870041  0.51899499     0.03400
H707        H  0.83449044  0.29297155  0.98462981     0.08500
H708        H  0.90879838  0.37023850  0.53051987     0.07300
C709        C  0.76575695  0.45228148  0.00203699     0.80500
N710        N  0.73411371  0.43611847  0.00036103    -0.77800
C711        C  0.71970541  0.45170630  0.99900208     0.82900
N712        N  0.73702260  0.48323915  0.99941011    -0.77800
C713        C  0.76846964  0.49942295  0.00067547     0.83000
N714        N  0.78274447  0.48387300  0.00192796    -0.79500
N715        N  0.89797305  0.85545602  0.53283438    -0.27000
N716        N  0.92376641  0.88292444  0.52769074    -0.34900
C717        C  0.92430739  0.90425840  0.54474493     0.01300
C718        C  0.89755994  0.88927687  0.56113988     0.07300
C719        C  0.88147317  0.85854334  0.55289590    -0.05800
H720        H  0.94292583  0.92864826  0.54543336     0.08000
H721        H  0.85982452  0.83945434  0.56162694     0.09200
Cu722      Cu  0.95746712  0.88945450  0.49866690     0.44200
Cu723      Cu  0.88684148  0.81323905  0.51690731     0.42000
Cu724      Cu  0.94925154  0.81548791  0.98571794     0.43900
N725        N  0.98468105  0.88382760  0.96976624    -0.34400
N726        N  0.98155811  0.85676626  0.96615991    -0.28700
C727        C  0.00102171  0.85948922  0.94584001    -0.04800
C728        C  0.01731937  0.88962105  0.93588522     0.07400
C729        C  0.00652309  0.90464257  0.95152687     0.01200
H730        H  0.00265025  0.84055459  0.93839839     0.08900
H731        H  0.01369896  0.92865543  0.94960667     0.08000
N732        N  0.90974056  0.77423431  0.99820859    -0.35900
N733        N  0.88543932  0.77321975  0.50862547    -0.28100
C734        C  0.86231820  0.74341717  0.51312167    -0.03300
C735        C  0.87271717  0.72479136  0.50510695     0.05300
C736        C  0.90293933  0.74513099  0.99577021     0.03400
H737        H  0.83968759  0.73593594  0.52158146     0.08500
H738        H  0.91856429  0.73929555  0.98713355     0.07300
O739        O  0.11603841  0.39413842  0.59472831    -0.72700
O740        O  0.04905598  0.36411188  0.65211223    -0.73700
O741        O  0.11339761  0.39200751  0.65440758    -0.62300
O742        O  0.05150578  0.36614564  0.59274560    -0.70700
O743        O  0.04489993  0.31972269  0.59119960    -0.70300
O744        O  0.10742279  0.34586091  0.65433970    -0.61500
O745        O  0.04220648  0.31757103  0.65199654    -0.74000
O746        O  0.11012311  0.34803610  0.59346822    -0.72800
Cu747      Cu  0.08281471  0.38066083  0.62349044     1.04600
Cu748      Cu  0.07592325  0.33104902  0.62268669     1.04300
C749        C  0.12341963  0.37604461  0.58468904     0.93500
C750        C  0.03526068  0.33631474  0.66137950     0.92600
C751        C  0.11960988  0.37311576  0.66471405     0.84800
C752        C  0.03850802  0.33898877  0.58212418     0.91100
N753        N  0.18885145  0.94989374  0.78762319    -0.27000
N754        N  0.18651344  0.97303825  0.77913719    -0.34900
C755        C  0.16397218  0.97255476  0.79414796     0.01300
C756        C  0.15128155  0.94770407  0.81270987     0.07300
C757        C  0.16750249  0.93381867  0.80791327    -0.05800
H758        H  0.15733745  0.98904732  0.79168578     0.08000
H759        H  0.16457571  0.91395062  0.81894864     0.09200
Cu760      Cu  0.21416317  0.00439900  0.74768119     0.44200
Cu761      Cu  0.22240170  0.94210698  0.77315605     0.42000
Cu762      Cu  0.27978780  0.00045065  0.72660443     0.43900
N763        N  0.24629705  0.03296559  0.71710230    -0.34400
N764        N  0.27077780  0.03211848  0.71042261    -0.28700
C765        C  0.28739769  0.05360537  0.69047392    -0.04800
C766        C  0.27255045  0.06848217  0.68403323     0.07400
C767        C  0.24650311  0.05483210  0.70122192     0.01200
H768        H  0.30836405  0.05755370  0.68084787     0.08900
H769        H  0.22907192  0.06037922  0.70218658     0.08000
N770        N  0.28172214  0.96366419  0.74134615    -0.35900
N771        N  0.26021362  0.94154347  0.75791434    -0.28100
C772        C  0.26754738  0.92051440  0.76280645    -0.03300
C773        C  0.29507555  0.92999672  0.74869188     0.05300
C774        C  0.30334107  0.95748075  0.73537884     0.03400
H775        H  0.25397856  0.90001938  0.77586494     0.08500
H776        H  0.32341739  0.97179867  0.72201594     0.07300
C777        C  0.39504020  0.81389762  0.74985214     0.80500
N778        N  0.42653217  0.83084628  0.74637723    -0.77800
C779        C  0.44207507  0.81637919  0.74559309     0.82900
N780        N  0.42600982  0.78499600  0.74834941    -0.77800
C781        C  0.39472787  0.76794051  0.75205127     0.83000
N782        N  0.37931342  0.78247917  0.75276840    -0.79500
N783        N  0.79807414  0.95746159  0.70678591    -0.27000
N784        N  0.82586561  0.98066741  0.71549986    -0.34900
C785        C  0.84789671  0.97925514  0.70138148     0.01300
C786        C  0.83312620  0.95377954  0.68336450     0.07300
C787        C  0.80171208  0.94057145  0.68750354    -0.05800
H788        H  0.87272881  0.99561285  0.70393166     0.08000
H789        H  0.78273673  0.92073927  0.67640321     0.09200
Cu790      Cu  0.83259822  0.01340401  0.74605951     0.44200
Cu791      Cu  0.75530001  0.95012273  0.71744845     0.42000
Cu792      Cu  0.76090169  0.01004448  0.75652656     0.43900
N793        N  0.82766579  0.04035715  0.77611662    -0.34400
N794        N  0.80118191  0.03861085  0.77897769    -0.28700
C795        C  0.80388869  0.05750305  0.79986175    -0.04800
C796        C  0.83347162  0.07215544  0.81096757     0.07400
C797        C  0.84817881  0.06087801  0.79543317     0.01200
H798        H  0.78542398  0.06025363  0.80654427     0.08900
H799        H  0.87184235  0.06707067  0.79796629     0.08000
N800        N  0.71917000  0.97515584  0.73967881    -0.35900
N801        N  0.71644264  0.95152249  0.72586669    -0.28100
C802        C  0.68613671  0.93074486  0.72001981    -0.03300
C803        C  0.66909229  0.94205613  0.73079447     0.05300
C804        C  0.69091365  0.97035084  0.74298699     0.03400
H805        H  0.67718395  0.90877880  0.70937085     0.08500
H806        H  0.68649231  0.98562082  0.75464867     0.07300
N807        N  0.35659190  0.31523086  0.78470630    -0.27000
N808        N  0.32948954  0.28906407  0.77936624    -0.34900
C809        C  0.30752132  0.28808952  0.79589420     0.01300
C810        C  0.32175704  0.31503715  0.81207152     0.07300
C811        C  0.35265549  0.33155749  0.80427416    -0.05800
H812        H  0.28326216  0.26908769  0.79638310     0.08000
H813        H  0.37134975  0.35340582  0.81309781     0.09200
Cu814      Cu  0.32485608  0.25595409  0.75055510     0.44200
Cu815      Cu  0.39963169  0.32734342  0.76994737     0.42000
Cu816      Cu  0.39974354  0.26496532  0.74203601     0.43900
N817        N  0.33312841  0.23045860  0.72180166    -0.34400
N818        N  0.36037507  0.23361230  0.71993953    -0.28700
C819        C  0.35953806  0.21566802  0.69897181    -0.04800
C820        C  0.33044492  0.20040765  0.68678259     0.07400
C821        C  0.31406255  0.21009693  0.70176998     0.01200
H822        H  0.37905634  0.21445904  0.69264711     0.08900
H823        H  0.29030753  0.20320380  0.69817228     0.08000
N824        N  0.44009920  0.30543646  0.75369962    -0.35900
N825        N  0.44049902  0.32983005  0.76285228    -0.28100
C826        C  0.47021838  0.35364171  0.76666396    -0.03300
C827        C  0.48929448  0.34349170  0.75944338     0.05300
C828        C  0.46936570  0.31280142  0.75130148     0.03400
H829        H  0.47733994  0.37656500  0.77399018     0.08500
H830        H  0.47553050  0.29717124  0.74338882     0.07300
C831        C  0.76074963  0.44882531  0.75347505     0.80500
N832        N  0.77754171  0.48039429  0.75274798    -0.77800
C833        C  0.76296016  0.49565983  0.75056049     0.82900
N834        N  0.73140245  0.47919059  0.74929164    -0.77800
C835        C  0.71446252  0.44762828  0.75017164     0.83000
N836        N  0.72922931  0.43255227  0.75220903    -0.79500
N837        N  0.89965984  0.85357937  0.70999472    -0.27000
N838        N  0.92459246  0.88107782  0.71685883    -0.34900
C839        C  0.92492513  0.90307187  0.70093662     0.01300
C840        C  0.89880631  0.88847962  0.68362718     0.07300
C841        C  0.88347745  0.85728535  0.69001470    -0.05800
H842        H  0.94266727  0.92772388  0.70201340     0.08000
H843        H  0.86225536  0.83841214  0.68043313     0.09200
Cu844      Cu  0.95644975  0.88682060  0.74782754     0.44200
Cu845      Cu  0.88795481  0.81085778  0.72524889     0.42000
Cu846      Cu  0.94275742  0.81135454  0.76823797     0.43900
N847        N  0.98173977  0.88108445  0.77904020    -0.34400
N848        N  0.97651697  0.85355291  0.78537252    -0.28700
C849        C  0.99626173  0.85685940  0.80568549    -0.04800
C850        C  0.01495588  0.88785939  0.81278665     0.07400
C851        C  0.00517471  0.90277787  0.79560619     0.01200
H852        H  0.99679541  0.83785653  0.81476430     0.08900
H853        H  0.01453128  0.92742786  0.79496928     0.08000
N854        N  0.90469586  0.77040495  0.75327233    -0.35900
N855        N  0.88321878  0.77006744  0.73773631    -0.28100
C856        C  0.86059449  0.74043319  0.73171117    -0.03300
C857        C  0.86844483  0.72124026  0.74402422     0.05300
C858        C  0.89659225  0.74106337  0.75754939     0.03400
H859        H  0.84017142  0.73345416  0.71909956     0.08500
H860        H  0.90999848  0.73473097  0.76991982     0.07300
N861        N  0.18251362  0.94771334  0.96443819    -0.27000
N862        N  0.18250431  0.97282057  0.97022636    -0.34900
C863        C  0.16239710  0.97382926  0.95270942     0.01300
C864        C  0.14920354  0.94799305  0.93527464     0.07300
C865        C  0.16235771  0.93194484  0.94335624    -0.05800
H866        H  0.15784489  0.99198861  0.95264586     0.08000
H867        H  0.15818487  0.91072786  0.93412566     0.09200
Cu868      Cu  0.21093838  0.00462259  0.00089784     0.44200
Cu869      Cu  0.21196495  0.93710757  0.98269055     0.42000
Cu870      Cu  0.27531935  0.99721236  0.52226805     0.43900
N871        N  0.24468803  0.03281850  0.53037591    -0.34400
N872        N  0.26857455  0.03089561  0.53701089    -0.28700
C873        C  0.28607311  0.05251801  0.55661473    -0.04800
C874        C  0.27235906  0.06850192  0.56282897     0.07400
C875        C  0.24616843  0.05548970  0.54590754     0.01200
H876        H  0.30661258  0.05555408  0.56638188     0.08900
H877        H  0.22931116  0.06180967  0.54507622     0.08000
N878        N  0.27287558  0.95740700  0.50987455    -0.35900
N879        N  0.24858272  0.93455784  0.99619126    -0.28100
C880        C  0.25307783  0.91161865  0.99136391    -0.03300
C881        C  0.28171462  0.92051749  0.00245284     0.05300
C882        C  0.29368717  0.94972329  0.51405853     0.03400
H883        H  0.23700893  0.89041086  0.97995718     0.08500
H884        H  0.31580005  0.96432442  0.52473234     0.07300
C885        C  0.39816387  0.82295646  0.98558532     0.80500
N886        N  0.38135815  0.79139702  0.98501302    -0.77800
C887        C  0.39590116  0.77609072  0.98279174     0.82900
N888        N  0.42746269  0.79254726  0.98114494    -0.77800
C889        C  0.44440428  0.82413992  0.98144004     0.83000
N890        N  0.42964309  0.83920492  0.98366788    -0.79500
N891        N  0.79892270  0.95469875  0.53611336    -0.27000
N892        N  0.82667419  0.97915002  0.52910880    -0.34900
C893        C  0.84845182  0.97872321  0.54470271     0.01300
C894        C  0.83346719  0.95269984  0.56202519     0.07300
C895        C  0.80225167  0.93803685  0.55585033    -0.05800
H896        H  0.87318685  0.99623310  0.54379719     0.08000
H897        H  0.78310838  0.91737840  0.56585979     0.09200
Cu898      Cu  0.83309234  0.01251117  0.99959173     0.44200
Cu899      Cu  0.75655859  0.94570301  0.52266917     0.42000
Cu900      Cu  0.76048342  0.00796539  0.98877596     0.43900
N901        N  0.82815007  0.04066216  0.97113053    -0.34400
N902        N  0.80167184  0.03899787  0.96850274    -0.28700
C903        C  0.80457456  0.05855374  0.94819542    -0.04800
C904        C  0.83419977  0.07338290  0.93716832     0.07400
C905        C  0.84877810  0.06167538  0.95223478     0.01200
H906        H  0.78600498  0.06110938  0.94139406     0.08900
H907        H  0.87228452  0.06753958  0.94936813     0.08000
N908        N  0.71870193  0.96885309  0.00076412    -0.35900
N909        N  0.71708083  0.94476706  0.51250240    -0.28100
C910        C  0.68703479  0.92137645  0.51512340    -0.03300
C911        C  0.66890302  0.93132725  0.50437827     0.05300
C912        C  0.68977877  0.96161679  0.99552772     0.03400
H913        H  0.67907829  0.89860849  0.52351947     0.08500
H914        H  0.68451658  0.97676315  0.98480650     0.07300
O915        O  0.90197266  0.17468741  0.90347519    -0.72700
O916        O  0.87314944  0.10832035  0.84323557    -0.73700
O917        O  0.90141534  0.17404922  0.84277039    -0.62300
O918        O  0.87355456  0.10900515  0.90439586    -0.70700
O919        O  0.82744633  0.10311415  0.90376315    -0.70300
O920        O  0.85497153  0.16744330  0.84393722    -0.61500
O921        O  0.82711835  0.10259389  0.84391183    -0.74000
O922        O  0.85536183  0.16774668  0.90314202    -0.72800
Cu923      Cu  0.88927284  0.14173962  0.87346217     1.04600
Cu924      Cu  0.83966658  0.13486553  0.87367667     1.04300
C925        C  0.88313722  0.18165992  0.91256424     0.93500
C926        C  0.84535087  0.09535774  0.83385652     0.92600
C927        C  0.88250830  0.18112024  0.83403169     0.84800
C928        C  0.84585696  0.09619170  0.91398162     0.91100
O929        O  0.87452878  0.96106472  0.65376190    -0.72700
O930        O  0.90598760  0.92961768  0.59268346    -0.73700
O931        O  0.87435367  0.96079828  0.59275353    -0.62300
O932        O  0.90643160  0.92968489  0.65358995    -0.70700
O933        O  0.86069834  0.88439505  0.65284550    -0.70300
O934        O  0.82902665  0.91509397  0.59365415    -0.61500
O935        O  0.86023112  0.88433908  0.59341653    -0.74000
O936        O  0.82923416  0.91534623  0.65306043    -0.72800
Cu937      Cu  0.89205576  0.94701488  0.62324117     1.04600
Cu938      Cu  0.84335718  0.89831933  0.62330757     1.04300
C939        C  0.84655825  0.94300086  0.66264580     0.93500
C940        C  0.88765561  0.90188134  0.58341448     0.92600
C941        C  0.84647745  0.94253818  0.58370511     0.84800
C942        C  0.88834422  0.90175806  0.66248606     0.91100
O943        O  0.26384764  0.10002370  0.65354696    -0.72700
O944        O  0.29309667  0.16549680  0.59241528    -0.73700
O945        O  0.26414793  0.10016653  0.59301222    -0.62300
O946        O  0.29244715  0.16542772  0.65335848    -0.70700
O947        O  0.33868908  0.17154800  0.65334435    -0.70300
O948        O  0.31040565  0.10629210  0.59389787    -0.61500
O949        O  0.33907383  0.17107302  0.59316536    -0.74000
O950        O  0.31032896  0.10668067  0.65323218    -0.72800
Cu951      Cu  0.27671798  0.13262456  0.62307667     1.04600
Cu952      Cu  0.32625005  0.13927581  0.62343643     1.04300
C953        C  0.28260799  0.09296035  0.66272130     0.93500
C954        C  0.32069561  0.17793499  0.58273050     0.92600
C955        C  0.28277487  0.09287772  0.58415015     0.84800
C956        C  0.31997717  0.17824417  0.66326375     0.91100
O957        O  0.11946135  0.95700265  0.84244603    -0.72700
O958        O  0.05378942  0.92919260  0.90371733    -0.73700
O959        O  0.11941301  0.95764942  0.90342428    -0.62300
O960        O  0.05338384  0.92864049  0.84278641    -0.70700
O961        O  0.04744028  0.88254007  0.84388958    -0.70300
O962        O  0.11243677  0.91105674  0.90313524    -0.61500
O963        O  0.04785135  0.88309319  0.90332636    -0.74000
O964        O  0.11261878  0.91051398  0.84377583    -0.72800
Cu965      Cu  0.08680769  0.94491681  0.87301484     1.04600
Cu966      Cu  0.07981575  0.89529984  0.87347705     1.04300
C967        C  0.12653446  0.93805113  0.83383424     0.93500
C968        C  0.04074882  0.90145039  0.91324173     0.92600
C969        C  0.12597725  0.93863929  0.91289144     0.84800
C970        C  0.03986099  0.90057355  0.83406075     0.91100
O971        O  0.24906389  0.33709529  0.84608926    -0.72700
O972        O  0.28487657  0.30818353  0.90538206    -0.73700
O973        O  0.25246915  0.33904540  0.90686619    -0.62300
O974        O  0.28165826  0.30646118  0.84439718    -0.70700
O975        O  0.32627590  0.35278402  0.84328569    -0.70300
O976        O  0.29811633  0.38430711  0.90441146    -0.61500
O977        O  0.32993365  0.35397329  0.90250169    -0.74000
O978        O  0.29434101  0.38284743  0.84539230    -0.72800
Cu979      Cu  0.26528688  0.32090653  0.87576723     1.04600
Cu980      Cu  0.31358846  0.36989782  0.87383326     1.04300
C981        C  0.26631423  0.36496630  0.83681718     0.93500
C982        C  0.31327714  0.32670349  0.91300908     0.92600
C983        C  0.27100563  0.36720882  0.91510129     0.84800
C984        C  0.30893013  0.32497419  0.83415236     0.91100
C985        C  0.53300217  0.88087521  0.48229691     0.16200
C986        C  0.56357421  0.90711907  0.48283059    -0.32800
C987        C  0.58722867  0.90264831  0.49016522     0.20600
C988        C  0.58080758  0.87337208  0.49653209     0.02800
C989        C  0.55029760  0.84705313  0.49551565    -0.22600
C990        C  0.52661715  0.85153452  0.48831773     0.12000
S991        S  0.50086477  0.88169094  0.47582545    -0.06200
C992        C  0.47857856  0.84206886  0.98132557    -0.09700
C993        C  0.49540971  0.82907661  0.98744378    -0.26300
S994        S  0.61263362  0.87300205  0.50579250    -0.03500
C995        C  0.63489034  0.91269587  0.50077538    -0.17000
C996        C  0.61826457  0.92531693  0.49245276    -0.14900
H997        H  0.56863346  0.93007955  0.47826436     0.20400
H998        H  0.54517879  0.82417779  0.00060470     0.16500
H999        H  0.48529619  0.80471396  0.99207699     0.19000
H1000       H  0.62825329  0.94976551  0.48844544     0.12300
C1001       C  0.30998849  0.86588262  0.99418230     0.16200
C1002       C  0.31314797  0.84104684  0.98856533    -0.32800
C1003       C  0.34295460  0.84661945  0.99108639     0.20600
C1004       C  0.36846216  0.87559818  0.99884299     0.02800
C1005       C  0.36519091  0.90024784  0.50494333    -0.22600
C1006       C  0.33541414  0.89469405  0.00240587     0.12000
S1007       S  0.27617222  0.86435885  0.99098377    -0.06200
C1008       C  0.29647231  0.90290073  0.00103344    -0.09700
C1009       C  0.32774681  0.91596942  0.50663049    -0.26300
S1010       S  0.40285904  0.87805793  0.49957513    -0.03700
C1011       C  0.38263973  0.83952859  0.98961686    -0.17000
C1012       C  0.35091049  0.82569017  0.98599055    -0.14900
H1013       H  0.29335430  0.81852716  0.98210937     0.20400
H1014       H  0.38507121  0.92289719  0.51098693     0.16500
H1015       H  0.34419403  0.93994128  0.51275889     0.19000
H1016       H  0.33463694  0.80175634  0.97960715     0.12300
C1017       C  0.81959044  0.58422772  0.75222879     0.16200
C1018       C  0.84514565  0.61488231  0.75555225    -0.32800
C1019       C  0.84082476  0.63880650  0.74907333     0.20600
C1020       C  0.81247908  0.63257014  0.73935838     0.02800
C1021       C  0.78686381  0.60189834  0.73616025    -0.22600
C1022       C  0.79107474  0.57796516  0.74299736     0.12000
S1023       S  0.82005569  0.55197142  0.75905727    -0.06200
C1024       C  0.78127450  0.52979952  0.74978341    -0.09700
C1025       C  0.76890647  0.54672413  0.74171448    -0.26300
S1026       S  0.81214487  0.66490323  0.73244321    -0.03500
C1027       C  0.85046167  0.68704160  0.74323052    -0.17000
C1028       C  0.86268141  0.67002630  0.75144944    -0.14900
H1029       H  0.86736730  0.61986904  0.76300889     0.20400
H1030       H  0.76460231  0.59690998  0.72882863     0.16500
H1031       H  0.74502749  0.53671049  0.73513355     0.19000
H1032       H  0.88629796  0.67990880  0.75874388     0.12300
C1033       C  0.57793713  0.40023403  0.75867162     0.16200
C1034       C  0.60864662  0.42621742  0.75896078    -0.32800
C1035       C  0.63237078  0.42111444  0.75427425     0.20600
C1036       C  0.62587977  0.39149569  0.74962226     0.02800
C1037       C  0.59518274  0.36556550  0.74910449    -0.22600
C1038       C  0.57148135  0.37068832  0.75370796     0.12000
S1039       S  0.54581531  0.40140590  0.76397160    -0.06200
C1040       C  0.52347939  0.36170380  0.75906857    -0.09700
C1041       C  0.54027967  0.34848648  0.75389667    -0.26300
S1042       S  0.65793786  0.39005016  0.74539777    -0.03500
C1043       C  0.68033869  0.42981241  0.74988204    -0.17000
C1044       C  0.66363489  0.44327858  0.75419697    -0.14900
H1045       H  0.61382901  0.44935265  0.76278457     0.20400
H1046       H  0.59000382  0.34240651  0.74542647     0.16500
H1047       H  0.53028942  0.32396179  0.75034935     0.19000
H1048       H  0.67382636  0.46785657  0.75773566     0.12300
C1049       C  0.52881004  0.85102015  0.73275525     0.16200
C1050       C  0.55776621  0.85589502  0.72650279    -0.32800
C1051       C  0.58424412  0.88602187  0.72992538     0.20600
C1052       C  0.58208282  0.91026909  0.73934555     0.02800
C1053       C  0.55300666  0.90547457  0.74531961    -0.22600
C1054       C  0.52642500  0.87529103  0.74168910     0.12000
S1055       S  0.49421683  0.81592757  0.73064613    -0.06200
C1056       C  0.47605162  0.83404616  0.74149068    -0.09700
C1057       C  0.49605915  0.86572505  0.74652863    -0.26300
S1058       S  0.61722209  0.94475550  0.74324930    -0.03500
C1059       C  0.63493315  0.92627953  0.73186770    -0.17000
C1060       C  0.61441489  0.89509605  0.72536929    -0.14900
H1061       H  0.55959876  0.83693522  0.71950218     0.20400
H1062       H  0.55120912  0.92434418  0.75267894     0.16500
H1063       H  0.48884611  0.88076785  0.75379923     0.19000
H1064       H  0.62117631  0.87961019  0.71837917     0.12300
C1065       C  0.34097114  0.84351850  0.75564360     0.16200
C1066       C  0.31628447  0.84722838  0.76044958    -0.32800
C1067       C  0.32100986  0.87609328  0.75372377     0.20600
C1068       C  0.34896526  0.90008551  0.74244235     0.02800
C1069       C  0.37373489  0.89645834  0.73784549    -0.22600
C1070       C  0.36911838  0.86770594  0.74483667     0.12000
S1071       S  0.33979917  0.81025894  0.76215542    -0.06200
C1072       C  0.37782921  0.82924300  0.75060425    -0.09700
C1073       C  0.39043402  0.85972739  0.74206394    -0.26300
S1074       S  0.34983778  0.93305101  0.73517446    -0.03500
C1075       C  0.31226332  0.91455827  0.74786070    -0.17000
C1076       C  0.29991737  0.88430654  0.75703240    -0.14900
H1077       H  0.29435209  0.82843493  0.76905926     0.20400
H1078       H  0.39565516  0.91523705  0.72920205     0.16500
H1079       H  0.41384999  0.87514926  0.73402580     0.19000
H1080       H  0.27668032  0.86902174  0.76547645     0.12300
C1081       C  0.82526670  0.58798279  0.99912509     0.16200
C1082       C  0.85112986  0.61869276  0.99736748    -0.32800
C1083       C  0.84604767  0.64253601  0.00132105     0.20600
C1084       C  0.81660703  0.63613593  0.50689806     0.02800
C1085       C  0.79073774  0.60546588  0.50843425    -0.22600
C1086       C  0.79579138  0.58165778  0.50435413     0.12000
S1087       S  0.82649253  0.55570999  0.99541596    -0.06200
C1088       C  0.78682650  0.53354923  0.00075367    -0.09700
C1089       C  0.77360949  0.55046566  0.50513175    -0.26300
S1090       S  0.81533775  0.66825010  0.51138940    -0.03500
C1091       C  0.85486939  0.69060970  0.50537117    -0.17000
C1092       C  0.86812811  0.67380930  0.00033294    -0.14900
H1093       H  0.87417977  0.62377792  0.99317073     0.20400
H1094       H  0.76769232  0.60037777  0.51267277     0.16500
H1095       H  0.74909995  0.54047306  0.50896569     0.19000
H1096       H  0.89258267  0.68386210  0.99621675     0.12300
C1097       C  0.81853436  0.42202976  0.51123901     0.16200
C1098       C  0.84353116  0.41886916  0.51568078    -0.32800
C1099       C  0.83771316  0.38902643  0.01332381     0.20600
C1100       C  0.80832935  0.36339589  0.00679011     0.02800
C1101       C  0.78315325  0.36648755  0.00276030    -0.22600
C1102       C  0.78897998  0.39641317  0.00512454     0.12000
S1103       S  0.82124519  0.45646064  0.01229463    -0.06200
C1104       C  0.78202219  0.43623114  0.00472231    -0.09700
C1105       C  0.76778871  0.40440497  0.00149661    -0.26300
S1106       S  0.80667856  0.32953874  0.00316238    -0.03500
C1107       C  0.84597514  0.35022516  0.01058135    -0.17000
C1108       C  0.85931180  0.38155766  0.01587511    -0.14900
H1109       H  0.86662620  0.43888737  0.52035440     0.20400
H1110       H  0.76018704  0.34656112  0.99757117     0.16500
H1111       H  0.74340628  0.38809486  0.99652636     0.19000
H1112       H  0.88375884  0.39827248  0.02024911     0.12300
C1113       C  0.84998683  0.40695472  0.75286123     0.16200
C1114       C  0.84636829  0.43183443  0.74980027    -0.32800
C1115       C  0.81644890  0.42563045  0.75355856     0.20600
C1116       C  0.79120391  0.39598307  0.75993849     0.02800
C1117       C  0.79489886  0.37119827  0.76336253    -0.22600
C1118       C  0.82484660  0.37743387  0.75975027     0.12000
S1119       S  0.88413825  0.40939501  0.74824854    -0.06200
C1120       C  0.86438842  0.37029579  0.75604437    -0.09700
C1121       C  0.83303140  0.35634538  0.76185521    -0.26300
S1122       S  0.75663749  0.39303867  0.76264674    -0.03500
C1123       C  0.77649348  0.43226171  0.75539917    -0.17000
C1124       C  0.80818404  0.44662758  0.75113891    -0.14900
H1125       H  0.86594161  0.45493718  0.74447634     0.20400
H1126       H  0.77525907  0.34802625  0.76838534     0.16500
H1127       H  0.81692181  0.33194754  0.76678020     0.19000
H1128       H  0.82423615  0.47102176  0.74612029     0.12300
C1129       C  0.34647350  0.63876730  0.97879744     0.16200
C1130       C  0.37239204  0.66926274  0.97568276    -0.32800
C1131       C  0.36786509  0.69347186  0.97958253     0.20600
C1132       C  0.33878284  0.68761496  0.98594336     0.02800
C1133       C  0.31287451  0.65712676  0.98907815    -0.22600
C1134       C  0.31748960  0.63294097  0.98554785     0.12000
S1135       S  0.34721896  0.60622084  0.97546183    -0.06200
C1136       C  0.30818368  0.58457313  0.48376424    -0.09700
C1137       C  0.29540807  0.60185277  0.48850028    -0.26300
S1138       S  0.33811126  0.72014878  0.48976358    -0.03500
C1139       C  0.37751732  0.74191707  0.98296844    -0.17000
C1140       C  0.39024954  0.72463359  0.97795686    -0.14900
H1141       H  0.39512530  0.67392165  0.97068812     0.20400
H1142       H  0.29018906  0.65247207  0.49429923     0.16500
H1143       H  0.27130713  0.59224809  0.49389588     0.19000
H1144       H  0.41455478  0.73432980  0.97335165     0.12300
C1145       C  0.57972001  0.36173409  0.98728994     0.16200
C1146       C  0.60833945  0.36488818  0.99134463    -0.32800
C1147       C  0.63518721  0.39514041  0.99240921     0.20600
C1148       C  0.63348292  0.42098760  0.98963723     0.02800
C1149       C  0.60496630  0.41782670  0.48533999    -0.22600
C1150       C  0.57819697  0.38764981  0.98415789     0.12000
S1151       S  0.54440812  0.32720715  0.98647883    -0.06200
C1152       C  0.52745990  0.34793131  0.48174667    -0.09700
C1153       C  0.54829812  0.37988755  0.48067886    -0.26300
S1154       S  0.66835338  0.45565506  0.49182220    -0.03500
C1155       C  0.68570923  0.43529757  0.99616536    -0.17000
C1156       C  0.66522927  0.40320113  0.99614158    -0.14900
H1157       H  0.60958739  0.34468772  0.99376015     0.20400
H1158       H  0.60369170  0.43803636  0.48316511     0.16500
H1159       H  0.54189370  0.39659070  0.47837286     0.19000
H1160       H  0.67192862  0.38673747  0.99858915     0.12300
C1161       C  0.36163683  0.68119791  0.76276955     0.16200
C1162       C  0.35701433  0.65204987  0.76738441    -0.32800
C1163       C  0.32624726  0.62603590  0.76787112     0.20600
C1164       C  0.30122756  0.62888177  0.76377249     0.02800
C1165       C  0.30584088  0.65802853  0.75938226    -0.22600
C1166       C  0.33657395  0.68405058  0.75905182     0.12000
S1167       S  0.39710384  0.71554173  0.76109891    -0.06200
C1168       C  0.37793879  0.73399976  0.75565661    -0.09700
C1169       C  0.34576746  0.71431250  0.75507850    -0.26300
S1170       S  0.26579663  0.59449375  0.76408510    -0.03500
C1171       C  0.28483686  0.57603500  0.76998408    -0.17000
C1172       C  0.31696605  0.59572651  0.77168153    -0.14900
H1173       H  0.37652453  0.64973684  0.77032766     0.20400
H1174       H  0.28633691  0.66030529  0.75620771     0.16500
H1175       H  0.32995356  0.72171246  0.75177865     0.19000
H1176       H  0.33274162  0.58826167  0.77481804     0.12300
loop_ 
_geom_bond_atom_site_label_1 
_geom_bond_atom_site_label_2 
_geom_bond_distance 
_geom_bond_site_symmetry_2 
_ccdc_geom_bond_type 
N1            N2   1.324       .  A
N1            C5   1.338       .  A
N1           Cu9   2.066       .  S
N2            C3   1.351       .  A
N2           Cu8   2.087       .  S
C3            C4   1.387       .  A
C3            H6   1.082       .  S
C4            C5   1.377       .  A
C4          C393   1.468       .  S
C5            H7   1.082       .  S
Cu8          N11   2.086       .  S
Cu9          N19   2.065       .  S
Cu10         N12   2.049       .  S
Cu10         N18   2.048       .  S
N11          N12   1.323       .  A
N11          C15   1.350       .  A
N12          C13   1.336       .  A
C13          C14   1.375       .  A
C13          H16   1.082       .  S
C14          C15   1.387       .  A
C14         C163   1.463       .  S
C15          H17   1.082       .  S
N18          N19   1.318       .  A
N18          C22   1.341       .  A
N19          C20   1.345       .  A
C20          C21   1.386       .  A
C20          H23   1.082       .  S
C21          C22   1.382       .  A
C21         C583   1.470       .  S
C22          H24   1.082       .  S
N25          N26   1.325       .  A
N25          C29   1.342       .  A
N25         Cu33   2.078       .  S
N26          C27   1.350       .  A
N26        Cu620   2.087       .  S
C27          C28   1.385       .  A
C27          H30   1.082       .  S
C28          C29   1.380       .  A
C28         C394   1.470       .  S
C29          H31   1.082       .  S
Cu32         N35   2.086   1_556  S
Cu32        N614   2.087       .  S
Cu33         N43   2.076       .  S
Cu34         N36   2.053       .  S
Cu34         N42   2.051   1_554  S
N35          N36   1.322       .  A
N35          C39   1.350       .  A
N36          C37   1.339       .  A
C37          C38   1.378       .  A
C37          H40   1.082       .  S
C38          C39   1.387       .  A
C38         C366   1.468       .  S
C39          H41   1.082       .  S
N42         N631   1.319       .  A
N42          C46   1.341       .  A
N43         N630   1.319       .  A
N43          C44   1.347       .  A
C44         C633   1.388       .  A
C44          H47   1.082       .  S
C45          C46   1.380       .  A
C45         C632   1.388       .  A
C45         C564   1.471       .  S
C46          H48   1.082       .  S
N49          N50   1.323       .  A
N49          C53   1.338       .  A
N49         Cu57   2.064       .  S
N50          C51   1.351       .  A
N50        Cu644   2.083       .  S
C51          C52   1.386       .  A
C51          H54   1.082       .  S
C52          C53   1.379       .  A
C52         C395   1.468       .  S
C53          H55   1.082       .  S
Cu56         N59   2.084   1_556  S
Cu56        N638   2.083       .  S
Cu57         N67   2.062       .  S
Cu58         N60   2.055       .  S
Cu58         N66   2.054   1_554  S
N59          N60   1.323       .  A
N59          C63   1.349       .  A
N60          C61   1.338       .  A
C61          C62   1.376       .  A
C61          H64   1.082       .  S
C62          C63   1.385       .  A
C62         C161   1.464       .  S
C63          H65   1.082       .  S
N66         N655   1.318       .  A
N66          C70   1.343       .  A
N67         N654   1.318       .  A
N67          C68   1.343       .  A
C68         C657   1.383       .  A
C68          H71   1.082       .  S
C69          C70   1.384       .  A
C69         C656   1.383       .  A
C69         C548   1.469       .  S
C70          H72   1.082   1_556  S
N73          N74   1.323       .  A
N73          C77   1.342       .  A
N73         Cu81   2.072       .  S
N74          C75   1.347       .  A
N74         Cu80   2.072       .  S
C75          C76   1.382       .  A
C75          H78   1.082       .  S
C76          C77   1.381       .  A
C76         C339   1.466       .  S
C77          H79   1.082       .  S
Cu80         N83   2.072       .  S
Cu81         N91   2.071       .  S
Cu82         N84   2.064       .  S
Cu82         N90   2.063       .  S
N83          N84   1.323       .  A
N83          C87   1.347       .  A
N84          C85   1.341       .  A
C85          C86   1.380   1_655  A
C85          H88   1.082   1_655  S
C86          C87   1.383   1_455  A
C86         C162   1.464       .  S
C87          H89   1.082   1_655  S
N90          N91   1.321       .  A
N90          C94   1.344       .  A
N91          C92   1.344       .  A
C92          C93   1.384       .  A
C92          H95   1.082       .  S
C93          C94   1.382       .  A
C93         C532   1.470       .  S
C94          H96   1.082       .  S
N97          N98   1.322       .  A
N97         C101   1.342       .  A
N97        Cu105   2.068       .  S
N98          C99   1.346       .  A
N98        Cu104   2.065       .  S
C99         C100   1.381       .  A
C99         H102   1.082       .  S
C100        C101   1.381       .  A
C100        C337   1.464       .  S
C101        H103   1.082       .  S
Cu104       N695   2.065       .  S
Cu105       N115   2.067       .  S
Cu106       N108   2.063       .  S
Cu106       N114   2.063       .  S
N107        N108   1.323       .  A
N107        C111   1.345   1_655  A
N107       Cu692   2.065   1_554  S
N108        C109   1.340       .  A
C109        C110   1.379   1_655  A
C109        H112   1.082   1_655  S
C110        C111   1.381       .  A
C110        C164   1.460       .  S
C111        H113   1.082       .  S
N114        N703   1.320   1_554  A
N114        C118   1.344       .  A
N115        N702   1.320       .  A
N115        C116   1.344       .  A
C116        C117   1.383       .  A
C116        H119   1.082       .  S
C117        C706   1.384       .  A
C117        C519   1.470       .  S
C118        C705   1.384       .  A
C118        H120   1.082       .  S
C121        N122   1.363       .  A
C121        N126   1.358       .  A
C121        C516   1.470       .  S
N122        C123   1.361       .  A
C123        N124   1.355       .  A
C123        C567   1.471       .  S
N124        C125   1.353       .  A
C125        N126   1.354       .  A
C125        C500   1.467       .  S
N127        N128   1.324       .  A
N127        C131   1.339       .  A
N127       Cu135   2.061       .  S
N128        C129   1.350       .  A
N128       Cu134   2.088   1_554  S
C129        C130   1.386       .  A
C129        H132   1.082       .  S
C130        C131   1.377       .  A
C130        C352   1.467       .  S
C131        H133   1.082       .  S
Cu134       N725   2.087       .  S
Cu135       N145   2.059       .  S
Cu136       N138   2.060       .  S
Cu136       N144   2.058       .  S
N137        N138   1.323       .  A
N137        C141   1.352   1_655  A
N137       Cu722   2.087       .  S
N138        C139   1.338   1_655  A
C139        C140   1.378       .  A
C139        H142   1.082       .  S
C140        C141   1.388       .  A
C140        C380   1.470       .  S
C141        H143   1.082       .  S
N144        N733   1.318       .  A
N144        C148   1.343       .  A
N145        N732   1.318   1_554  A
N145        C146   1.343       .  A
C146        C147   1.384       .  A
C146        H149   1.082       .  S
C147        C736   1.384   1_554  A
C147        C503   1.470       .  S
C148        C735   1.384       .  A
C148        H150   1.082       .  S
O151       Cu159   1.986       .  S
O151        C161   1.276       .  A
O152       Cu159   1.985       .  S
O152        C162   1.275       .  A
O153       Cu159   1.982       .  S
O153        C163   1.276       .  A
O154       Cu159   1.982       .  S
O154        C164   1.274       .  A
O155       Cu160   2.017       .  S
O155        C164   1.279       .  A
O156       Cu160   2.018       .  S
O156        C163   1.278       .  A
O157       Cu160   2.021       .  S
O157        C162   1.279       .  A
O158       Cu160   2.018       .  S
O158        C161   1.278       .  A
Cu159      Cu160   2.378       .  S
N165        N166   1.324       .  A
N165        C169   1.345       .  A
N165       Cu173   2.091       .  S
N166        C167   1.348       .  A
N166       Cu172   2.076   1_565  S
C167        C168   1.383       .  A
C167        H170   1.082       .  S
C168        C169   1.385       .  A
C168        C379   1.472       .  S
C169        H171   1.082       .  S
Cu172       N175   2.075       .  S
Cu173       N183   2.090       .  S
Cu174       N176   2.071       .  S
Cu174       N182   2.071   1_545  S
N175        N176   1.323       .  A
N175        C179   1.348       .  A
N176        C177   1.342       .  A
C177        C178   1.381       .  A
C177        H180   1.082       .  S
C178        C179   1.383       .  A
C178        C365   1.466       .  S
C179        H181   1.082       .  S
N182        N183   1.321       .  A
N182        C186   1.345       .  A
N183        C184   1.348       .  A
C184        C185   1.389       .  A
C184        H187   1.082       .  S
C185        C186   1.384       .  A
C185        C487   1.480       .  S
C186        H188   1.082       .  S
C189        N190   1.363       .  A
C189        N194   1.360       .  A
C189        C484   1.477       .  S
N190        C191   1.361       .  A
C191        N192   1.356       .  A
C191        C468   1.473       .  S
N192        C193   1.355       .  A
C193        N194   1.358       .  A
C193        C580   1.472       .  S
N195        N196   1.326       .  A
N195        C199   1.342       .  A
N195       Cu203   2.080       .  S
N196        C197   1.352       .  A
N196       Cu202   2.097   1_565  S
C197        C198   1.386       .  A
C197        H200   1.082       .  S
C198        C199   1.379       .  A
C198        C351   1.472       .  S
C199        H201   1.082       .  S
Cu202       N205   2.096       .  S
Cu203       N213   2.079       .  S
Cu204       N206   2.054       .  S
Cu204       N212   2.054   1_545  S
N205        N206   1.322       .  A
N205        C209   1.353       .  A
N206        C207   1.337       .  A
C207        C208   1.376       .  A
C207        H210   1.082       .  S
C208        C209   1.390       .  A
C208        C338   1.471       .  S
C209        H211   1.082       .  S
N212        N213   1.318       .  A
N212        C216   1.343       .  A
N213        C214   1.347       .  A
C214        C215   1.390       .  A
C214        H217   1.082       .  S
C215        C216   1.382       .  A
C215        C471   1.476       .  S
C216        H218   1.082       .  S
N219        N220   1.324       .  A
N219        C223   1.338       .  A
N219       Cu227   2.064       .  S
N220        C221   1.352       .  A
N220       Cu226   2.089       .  S
C221        C222   1.387       .  A
C221        H224   1.082       .  S
C222        C223   1.378       .  A
C222        C396   1.469       .  S
C223        H225   1.082       .  S
Cu226       N229   2.089       .  S
Cu227       N237   2.063       .  S
Cu228       N230   2.047       .  S
Cu228       N236   2.046       .  S
N229        N230   1.323       .  A
N229        C233   1.349       .  A
N230        C231   1.338       .  A
C231        C232   1.375       .  A
C231        H234   1.082       .  S
C232        C233   1.387       .  A
C232        C368   1.465       .  S
C233        H235   1.082       .  S
N236        N237   1.318       .  A
N236        C240   1.340       .  A
N237        C238   1.345       .  A
C238        C239   1.385       .  A
C238        H241   1.082       .  S
C239        C240   1.382       .  A
C239        C452   1.468       .  S
C240        H242   1.081       .  S
C243        N244   1.357       .  A
C243        N248   1.356       .  A
C243        C535   1.467       .  S
N244        C245   1.357       .  A
C245        N246   1.357       .  A
C245        C436   1.468       .  S
N246        C247   1.357       .  A
C247        N248   1.356       .  A
C247        C455   1.466       .  S
N249        N250   1.324       .  A
N249        C253   1.339       .  A
N249       Cu257   2.064       .  S
N250        C251   1.351       .  A
N250       Cu256   2.091       .  S
C251        C252   1.387       .  A
C251        H254   1.082       .  S
C252        C253   1.377       .  A
C252        C354   1.469       .  S
C253        H255   1.082       .  S
Cu256       N259   2.090       .  S
Cu257       N267   2.063       .  S
Cu258       N260   2.057       .  S
Cu258       N266   2.056       .  S
N259        N260   1.323       .  A
N259        C263   1.352   1_655  A
N260        C261   1.337       .  A
C261        C262   1.376   1_655  A
C261        H264   1.082       .  S
C262        C263   1.388       .  A
C262        C382   1.467       .  S
C263        H265   1.082       .  S
N266        N267   1.318       .  A
N266        C270   1.343       .  A
N267        C268   1.344       .  A
C268        C269   1.384       .  A
C268        H271   1.082       .  S
C269        C270   1.384       .  A
C269        C439   1.471       .  S
C270        H272   1.082       .  S
N273        N274   1.322       .  A
N273        C277   1.340       .  A
N273       Cu281   2.061       .  S
N274        C275   1.347       .  A
N274       Cu280   2.067   1_565  S
C275        C276   1.383       .  A
C275        H278   1.082       .  S
C276        C277   1.379       .  A
C276        C381   1.463       .  S
C277        H279   1.082       .  S
Cu280       N871   2.068       .  S
Cu281       N291   2.060       .  S
Cu282       N284   2.068   1_565  S
Cu282       N290   2.068       .  S
N283        N284   1.324       .  A
N283        C287   1.345       .  A
N283       Cu868   2.068       .  S
N284        C285   1.342       .  A
C285        C286   1.379       .  A
C285        H288   1.082       .  S
C286        C287   1.381       .  A
C286        C367   1.461       .  S
C287        H289   1.082       .  S
N290        N879   1.320   1_554  A
N290        C294   1.345       .  A
N291        N878   1.320       .  A
N291        C292   1.342       .  A
C292        C293   1.382       .  A
C292        H295   1.082       .  S
C293        C882   1.386       .  A
C293        C420   1.471       .  S
C294        C881   1.386       .  A
C294        H296   1.082       .  S
C297        N298   1.357       .  A
C297        N302   1.356       .  A
C297        C423   1.468       .  S
N298        C299   1.357       .  A
C299        N300   1.358       .  A
C299        C551   1.469       .  S
N300        C301   1.358       .  A
C301        N302   1.356       .  A
C301        C404   1.468       .  S
N303        N304   1.324       .  A
N303        C307   1.340       .  A
N303       Cu311   2.062       .  S
N304        C305   1.350       .  A
N304       Cu898   2.092   1_564  S
C305        C306   1.386       .  A
C305        H308   1.082       .  S
C306        C307   1.378       .  A
C306        C353   1.467       .  S
C307        H309   1.082       .  S
Cu310       N313   2.092       .  S
Cu310       N892   2.092   1_545  S
Cu311       N321   2.061       .  S
Cu312       N314   2.057       .  S
Cu312       N320   2.057   1_545  S
N313        N314   1.323       .  A
N313        C317   1.352       .  A
N314        C315   1.338       .  A
C315        C316   1.377       .  A
C315        H318   1.082       .  S
C316        C317   1.389       .  A
C316        C340   1.470       .  S
C317        H319   1.082       .  S
N320        N909   1.318       .  A
N320        C324   1.343       .  A
N321        N908   1.318       .  A
N321        C322   1.343       .  A
C322        C323   1.384       .  A
C322        H325   1.082       .  S
C323        C912   1.384   1_554  A
C323        C407   1.470       .  S
C324        C911   1.384       .  A
C324        H326   1.082       .  S
O327       Cu335   2.022       .  S
O327        C337   1.279       .  A
O328       Cu335   2.027       .  S
O328        C338   1.278       .  A
O329       Cu335   2.028       .  S
O329        C339   1.280       .  A
O330       Cu335   2.031       .  S
O330        C340   1.279       .  A
O331       Cu336   1.988       .  S
O331        C340   1.276       .  A
O332       Cu336   1.988       .  S
O332        C339   1.274       .  A
O333       Cu336   1.992       .  S
O333        C338   1.277       .  A
O334       Cu336   1.986       .  S
O334        C337   1.274       .  A
Cu335      Cu336   2.376       .  S
O341       Cu349   2.033       .  S
O341        C351   1.280       .  A
O342       Cu349   2.027       .  S
O342        C352   1.279       .  A
O343       Cu349   2.028       .  S
O343        C353   1.279       .  A
O344       Cu349   2.030       .  S
O344        C354   1.279       .  A
O345       Cu350   1.989       .  S
O345        C354   1.276       .  A
O346       Cu350   1.987       .  S
O346        C353   1.275       .  A
O347       Cu350   1.989       .  S
O347        C352   1.275       .  A
O348       Cu350   1.993       .  S
O348        C351   1.276       .  A
Cu349      Cu350   2.376       .  S
O355       Cu363   2.025       .  S
O355        C365   1.280       .  A
O356       Cu363   2.025       .  S
O356        C366   1.279       .  A
O357       Cu363   2.008       .  S
O357        C367   1.277       .  A
O358       Cu363   2.011       .  S
O358        C368   1.276       .  A
O359       Cu364   1.998       .  S
O359        C368   1.277       .  A
O360       Cu364   1.991       .  S
O360        C367   1.275       .  A
O361       Cu364   1.992       .  S
O361        C366   1.276       .  A
O362       Cu364   1.988       .  S
O362        C365   1.275       .  A
Cu363      Cu364   2.377       .  S
O369       Cu377   2.036       .  S
O369        C379   1.281       .  A
O370       Cu377   2.033       .  S
O370        C380   1.280       .  A
O371       Cu377   2.022       .  S
O371        C381   1.279       .  A
O372       Cu377   2.026       .  S
O372        C382   1.278       .  A
O373       Cu378   1.987       .  S
O373        C382   1.276       .  A
O374       Cu378   1.982       .  S
O374        C381   1.274       .  A
O375       Cu378   1.988       .  S
O375        C380   1.276       .  A
O376       Cu378   1.994       .  S
O376        C379   1.275       .  A
Cu377      Cu378   2.376       .  S
O383       Cu391   2.029       .  S
O383        C393   1.279       .  A
O384       Cu391   2.031       .  S
O384        C394   1.280       .  A
O385       Cu391   2.035       .  S
O385        C395   1.280       .  A
O386       Cu391   2.037       .  S
O386        C396   1.280       .  A
O387       Cu392   1.979       .  S
O387        C396   1.274       .  A
O388       Cu392   1.980       .  S
O388        C395   1.274       .  A
O389       Cu392   1.992       .  S
O389        C394   1.275       .  A
O390       Cu392   1.988       .  S
O390        C393   1.276       .  A
Cu391      Cu392   2.375       .  S
C397        C402   1.387       .  A
C397        C398   1.400       .  A
C397        S403   1.704       .  A
C398        C399   1.401       .  A
C398        H409   1.083       .  S
C399        C408   1.368       .  A
C399        C400   1.387       .  A
C400        C401   1.400       .  A
C400        S406   1.705   1_556  A
C401        C402   1.401       .  A
C401        H998   1.083   1_556  S
C402        C993   1.368       .  A
S403        C992   1.723       .  A
C404        C405   1.385       .  A
C404        S991   1.723       .  A
C405        C990   1.368       .  A
C405        H411   1.083       .  S
S406        C407   1.722       .  A
C407        C408   1.386   1_554  A
C408        H412   1.083       .  S
H410        C989   1.083       .  S
C413        C418   1.387       .  A
C413        C414   1.401       .  A
C413        S419   1.705       .  A
C414        C415   1.401       .  A
C414        H425   1.083       .  S
C415        C424   1.369       .  A
C415        C416   1.387       .  A
C416       C1005   1.399       .  A
C416       S1010   1.704       .  A
C417       C1004   1.399   1_554  A
C417       C1006   1.400       .  A
C417        H426   1.083       .  S
C418       C1005   1.400       .  A
C418       C1009   1.368       .  A
S419        C420   1.723       .  A
C420       C1009   1.385       .  A
C421       C1006   1.368       .  A
C421       C1008   1.385       .  A
C421        H427   1.083       .  S
S422       C1004   1.704       .  A
S422       C1011   1.722       .  A
C423        C424   1.386       .  A
C423       S1010   1.722       .  A
C424        H428   1.083       .  S
C429        C434   1.387       .  A
C429        C430   1.399       .  A
C429        S435   1.705       .  A
C430        C431   1.401       .  A
C430        H441   1.083       .  S
C431        C440   1.367       .  A
C431        C432   1.387       .  A
C432        C433   1.400       .  A
C432        S438   1.706       .  A
C433        C434   1.401       .  A
C433        H442   1.083       .  S
C434        C437   1.368       .  A
S435        C436   1.722       .  A
C436        C437   1.386       .  A
C437        H443   1.083       .  S
S438        C439   1.723       .  A
C439        C440   1.386       .  A
C440        H444   1.083       .  S
C445        C450   1.387       .  A
C445        C446   1.399       .  A
C445        S451   1.706       .  A
C446        C447   1.401       .  A
C446        H457   1.083       .  S
C447        C456   1.367       .  A
C447        C448   1.387       .  A
C448        C449   1.398       .  A
C448        S454   1.704       .  A
C449        C450   1.400       .  A
C449        H458   1.083       .  S
C450        C453   1.365       .  A
S451        C452   1.722       .  A
C452        C453   1.385       .  A
C453        H459   1.082       .  S
S454        C455   1.722       .  A
C455        C456   1.385       .  A
C456        H460   1.083       .  S
C461        C466   1.387       .  A
C461        C462   1.400       .  A
C461        S467   1.703       .  A
C462        C463   1.400       .  A
C462        H473   1.083       .  S
C463        C472   1.370       .  A
C463        C464   1.386       .  A
C464        C465   1.405       .  A
C464        S470   1.708       .  A
C465        C466   1.405       .  A
C465        H474   1.083       .  S
C466        C469   1.374       .  A
S467        C468   1.723       .  A
C468        C469   1.388       .  A
C469        H475   1.083       .  S
S470        C471   1.726       .  A
C471        C472   1.385       .  A
C472        H476   1.082       .  S
C477        C482   1.387       .  A
C477        C478   1.403       .  A
C477        S483   1.708       .  A
C478        C479   1.404       .  A
C478        H489   1.083       .  S
C479        C488   1.374       .  A
C479        C480   1.386       .  A
C480        C481   1.403       .  A
C480        S486   1.708       .  A
C481        C482   1.403       .  A
C481        H490   1.083       .  S
C482        C485   1.373       .  A
S483        C484   1.725       .  A
C484        C485   1.388       .  A
C485        H491   1.083       .  S
S486        C487   1.725       .  A
C487        C488   1.388       .  A
C488        H492   1.083       .  S
C493        C494   1.400       .  A
C493       C1086   1.387       .  A
C493        S499   1.706       .  A
C494        C495   1.402       .  A
C494        H505   1.083       .  S
C495        C504   1.368       .  A
C495       C1084   1.387       .  A
C496        C497   1.398       .  A
C496       C1083   1.387       .  A
C496        S502   1.704       .  A
C497        C498   1.400       .  A
C497        H506   1.083       .  S
C498        C501   1.365       .  A
C498       C1081   1.387   1_554  A
S499        C500   1.722       .  A
C500       C1089   1.385       .  A
C501       C1088   1.385       .  A
C501        H507   1.083       .  S
S502        C503   1.722       .  A
C503       C1092   1.386       .  A
C504       C1091   1.386       .  A
C504        H508   1.083       .  S
C509        C510   1.398       .  A
C509       C1102   1.387       .  A
C509       S1103   1.701       .  A
C510       C1099   1.399       .  A
C510        H521   1.083       .  S
C511        C520   1.367       .  A
C511        C512   1.387       .  A
C511       C1098   1.399       .  A
C512        C513   1.402       .  A
C512        S518   1.707       .  A
C513        C514   1.403       .  A
C513        H522   1.083       .  S
C514        C517   1.372       .  A
C514       C1097   1.387       .  A
S515        C516   1.723       .  A
S515       C1097   1.701       .  A
C516        C517   1.387       .  A
C517        H523   1.083       .  S
S518        C519   1.724       .  A
C519        C520   1.384       .  A
C520        H524   1.083       .  S
C525        C530   1.387       .  A
C525        C526   1.400       .  A
C525        S531   1.705       .  A
C526        C527   1.401       .  A
C526        H537   1.083       .  S
C527        C536   1.367       .  A
C527        C528   1.387       .  A
C528        C529   1.399       .  A
C528        S534   1.705       .  A
C529        C530   1.401       .  A
C529        H538   1.083       .  S
C530        C533   1.368       .  A
S531        C532   1.723       .  A
C532        C533   1.385       .  A
C533        H539   1.083       .  S
S534        C535   1.722       .  A
C535        C536   1.385       .  A
C536        H540   1.083       .  S
C541        C546   1.387       .  A
C541        C542   1.400       .  A
C541        S547   1.705       .  A
C542        C543   1.401       .  A
C542        H553   1.083       .  S
C543        C552   1.368       .  A
C543        C544   1.387       .  A
C544        C545   1.399       .  A
C544       S1138   1.704       .  A
C545        C546   1.400       .  A
C545       H1142   1.083       .  S
C546       C1137   1.367       .  A
S547       C1136   1.722       .  A
C548        C549   1.385       .  A
C548       S1135   1.722       .  A
C549       C1134   1.367       .  A
C549        H555   1.083       .  S
S550       C1132   1.704       .  A
S550       C1139   1.723       .  A
C551        C552   1.386       .  A
C551       S1138   1.723       .  A
C552        H556   1.083       .  S
H554       C1133   1.083       .  S
C557        C562   1.387       .  A
C557        C558   1.403       .  A
C557        S563   1.704       .  A
C558        C559   1.402       .  A
C558        H569   1.083       .  S
C559        C568   1.373       .  A
C559        C560   1.387       .  A
C560       C1149   1.399       .  A
C560       S1154   1.699       .  A
C561       C1148   1.399       .  A
C561       C1150   1.399       .  A
C561        H570   1.083       .  S
C562       C1149   1.399       .  A
C562       C1153   1.370       .  A
S563       C1152   1.725       .  A
C564        C565   1.384       .  A
C564       S1151   1.725       .  A
C565       C1150   1.370       .  A
C565        H571   1.083       .  S
S566       C1148   1.699       .  A
S566       C1155   1.723       .  A
C567        C568   1.387       .  A
C567       S1154   1.723       .  A
C568        H572   1.083       .  S
C573        C578   1.387       .  A
C573        C574   1.401       .  A
C573        S579   1.705       .  A
C574        C575   1.402       .  A
C574        H585   1.083       .  S
C575        C584   1.369       .  A
C575        C576   1.387       .  A
C576        C577   1.400       .  A
C576        S582   1.704       .  A
C577        C578   1.401       .  A
C577        H586   1.083       .  S
C578        C581   1.369       .  A
S579        C580   1.724       .  A
C580        C581   1.385       .  A
C581        H587   1.083       .  S
S582        C583   1.722       .  A
C583        C584   1.386       .  A
C584        H588   1.083       .  S
N589        N590   1.324       .  A
N589        C593   1.338       .  A
N589       Cu597   2.066       .  S
N590        C591   1.351       .  A
N590       Cu596   2.087       .  S
C591        C592   1.387       .  A
C591        H594   1.082       .  S
C592        C593   1.377       .  A
C592        C981   1.468       .  S
C593        H595   1.082       .  S
Cu596       N599   2.086       .  S
Cu597       N607   2.065       .  S
Cu598       N600   2.049       .  S
Cu598       N606   2.048       .  S
N599        N600   1.323       .  A
N599        C603   1.350       .  A
N600        C601   1.336       .  A
C601        C602   1.375       .  A
C601        H604   1.082       .  S
C602        C603   1.387       .  A
C602        C751   1.463       .  S
C603        H605   1.082       .  S
N606        N607   1.318       .  A
N606        C610   1.341       .  A
N607        C608   1.345       .  A
C608        C609   1.386       .  A
C608        H611   1.082       .  S
C609        C610   1.382       .  A
C609       C1171   1.470       .  S
C610        H612   1.082       .  S
N613        N614   1.325       .  A
N613        C617   1.342       .  A
N613       Cu621   2.078       .  S
N614        C615   1.350       .  A
C615        C616   1.385       .  A
C615        H618   1.082       .  S
C616        C617   1.380       .  A
C616        C982   1.470       .  S
C617        H619   1.082       .  S
Cu620       N623   2.086       .  S
Cu621       N631   2.076       .  S
Cu622       N624   2.053       .  S
Cu622       N630   2.051       .  S
N623        N624   1.322       .  A
N623        C627   1.350       .  A
N624        C625   1.339       .  A
C625        C626   1.378       .  A
C625        H628   1.082       .  S
C626        C627   1.387       .  A
C626        C954   1.468       .  S
C627        H629   1.082       .  S
N630        C634   1.341       .  A
N631        C632   1.347       .  A
C632        H635   1.082       .  S
C633        C634   1.380       .  A
C633       C1152   1.471       .  S
C634        H636   1.082       .  S
N637        N638   1.323       .  A
N637        C641   1.338       .  A
N637       Cu645   2.064       .  S
N638        C639   1.351       .  A
C639        C640   1.386       .  A
C639        H642   1.082       .  S
C640        C641   1.379       .  A
C640        C983   1.468       .  S
C641        H643   1.082       .  S
Cu644       N647   2.084       .  S
Cu645       N655   2.062       .  S
Cu646       N648   2.055       .  S
Cu646       N654   2.054       .  S
N647        N648   1.323       .  A
N647        C651   1.349       .  A
N648        C649   1.338       .  A
C649        C650   1.376       .  A
C649        H652   1.082       .  S
C650        C651   1.385       .  A
C650        C749   1.464       .  S
C651        H653   1.082       .  S
N654        C658   1.343       .  A
N655        C656   1.343       .  A
C656        H659   1.082       .  S
C657        C658   1.384       .  A
C657       C1136   1.469       .  S
C658        H660   1.082       .  S
N661        N662   1.323       .  A
N661        C665   1.342       .  A
N661       Cu669   2.072       .  S
N662        C663   1.347       .  A
N662       Cu668   2.072       .  S
C663        C664   1.382       .  A
C663        H666   1.082       .  S
C664        C665   1.381       .  A
C664        C927   1.466       .  S
C665        H667   1.082       .  S
Cu668       N671   2.072       .  S
Cu669       N679   2.071       .  S
Cu670       N672   2.064       .  S
Cu670       N678   2.063       .  S
N671        N672   1.323       .  A
N671        C675   1.347       .  A
N672        C673   1.341       .  A
C673        C674   1.380   1_655  A
C673        H676   1.082   1_655  S
C674        C675   1.383   1_455  A
C674        C750   1.464       .  S
C675        H677   1.082   1_655  S
N678        N679   1.321       .  A
N678        C682   1.344       .  A
N679        C680   1.344       .  A
C680        C681   1.384       .  A
C680        H683   1.082       .  S
C681        C682   1.382       .  A
C681       C1120   1.470       .  S
C682        H684   1.082       .  S
N685        N686   1.322       .  A
N685        C689   1.342       .  A
N685       Cu693   2.068       .  S
N686        C687   1.346       .  A
N686       Cu692   2.065       .  S
C687        C688   1.381       .  A
C687        H690   1.082       .  S
C688        C689   1.381       .  A
C688        C925   1.464       .  S
C689        H691   1.082       .  S
Cu693       N703   2.067       .  S
Cu694       N696   2.063       .  S
Cu694       N702   2.063       .  S
N695        N696   1.323       .  A
N695        C699   1.345   1_655  A
N696        C697   1.340       .  A
C697        C698   1.379   1_655  A
C697        H700   1.082   1_655  S
C698        C699   1.381       .  A
C698        C752   1.460       .  S
C699        H701   1.082       .  S
N702        C706   1.344       .  A
N703        C704   1.344       .  A
C704        C705   1.383   1_556  A
C704        H707   1.082       .  S
C705       C1107   1.470       .  S
C706        H708   1.082       .  S
C709        N710   1.363       .  A
C709        N714   1.358       .  A
C709       C1104   1.470       .  S
N710        C711   1.361   1_554  A
C711        N712   1.355       .  A
C711       C1155   1.471       .  S
N712        C713   1.353   1_556  A
C713        N714   1.354       .  A
C713       C1088   1.467       .  S
N715        N716   1.324       .  A
N715        C719   1.339       .  A
N715       Cu723   2.061       .  S
N716        C717   1.350       .  A
N716       Cu722   2.088       .  S
C717        C718   1.386       .  A
C717        H720   1.082       .  S
C718        C719   1.377       .  A
C718        C940   1.467       .  S
C719        H721   1.082       .  S
Cu723       N733   2.059       .  S
Cu724       N726   2.060       .  S
Cu724       N732   2.058       .  S
N725        N726   1.323       .  A
N725        C729   1.352   1_655  A
N726        C727   1.338   1_655  A
C727        C728   1.378       .  A
C727        H730   1.082       .  S
C728        C729   1.388       .  A
C728        C968   1.470       .  S
C729        H731   1.082       .  S
N732        C736   1.343       .  A
N733        C734   1.343       .  A
C734        C735   1.384       .  A
C734        H737   1.082       .  S
C735       C1091   1.470       .  S
C736        H738   1.082       .  S
O739       Cu747   1.986       .  S
O739        C749   1.276       .  A
O740       Cu747   1.985       .  S
O740        C750   1.275       .  A
O741       Cu747   1.982       .  S
O741        C751   1.276       .  A
O742       Cu747   1.982       .  S
O742        C752   1.274       .  A
O743       Cu748   2.017       .  S
O743        C752   1.279       .  A
O744       Cu748   2.018       .  S
O744        C751   1.278       .  A
O745       Cu748   2.021       .  S
O745        C750   1.279       .  A
O746       Cu748   2.018       .  S
O746        C749   1.278       .  A
Cu747      Cu748   2.378       .  S
N753        N754   1.324       .  A
N753        C757   1.345       .  A
N753       Cu761   2.091       .  S
N754        C755   1.348       .  A
N754       Cu760   2.076   1_565  S
C755        C756   1.383       .  A
C755        H758   1.082       .  S
C756        C757   1.385       .  A
C756        C967   1.472       .  S
C757        H759   1.082       .  S
Cu760       N763   2.075       .  S
Cu761       N771   2.090       .  S
Cu762       N764   2.071       .  S
Cu762       N770   2.071   1_545  S
N763        N764   1.323       .  A
N763        C767   1.348       .  A
N764        C765   1.342       .  A
C765        C766   1.381       .  A
C765        H768   1.082       .  S
C766        C767   1.383       .  A
C766        C953   1.466       .  S
C767        H769   1.082       .  S
N770        N771   1.321       .  A
N770        C774   1.345       .  A
N771        C772   1.348       .  A
C772        C773   1.389       .  A
C772        H775   1.082       .  S
C773        C774   1.384       .  A
C773       C1075   1.480       .  S
C774        H776   1.082       .  S
C777        N778   1.363       .  A
C777        N782   1.360       .  A
C777       C1072   1.477       .  S
N778        C779   1.361       .  A
C779        N780   1.356       .  A
C779       C1056   1.473       .  S
N780        C781   1.355       .  A
C781        N782   1.358       .  A
C781       C1168   1.472       .  S
N783        N784   1.326       .  A
N783        C787   1.342       .  A
N783       Cu791   2.080       .  S
N784        C785   1.352       .  A
N784       Cu790   2.097   1_565  S
C785        C786   1.386       .  A
C785        H788   1.082       .  S
C786        C787   1.379       .  A
C786        C939   1.472       .  S
C787        H789   1.082       .  S
Cu790       N793   2.096       .  S
Cu791       N801   2.079       .  S
Cu792       N794   2.054       .  S
Cu792       N800   2.054   1_545  S
N793        N794   1.322       .  A
N793        C797   1.353       .  A
N794        C795   1.337       .  A
C795        C796   1.376       .  A
C795        H798   1.082       .  S
C796        C797   1.390       .  A
C796        C926   1.471       .  S
C797        H799   1.082       .  S
N800        N801   1.318       .  A
N800        C804   1.343       .  A
N801        C802   1.347       .  A
C802        C803   1.390       .  A
C802        H805   1.082       .  S
C803        C804   1.382       .  A
C803       C1059   1.476       .  S
C804        H806   1.082       .  S
N807        N808   1.324       .  A
N807        C811   1.338       .  A
N807       Cu815   2.064       .  S
N808        C809   1.352       .  A
N808       Cu814   2.089       .  S
C809        C810   1.387       .  A
C809        H812   1.082       .  S
C810        C811   1.378       .  A
C810        C984   1.469       .  S
C811        H813   1.082       .  S
Cu814       N817   2.089       .  S
Cu815       N825   2.063       .  S
Cu816       N818   2.047       .  S
Cu816       N824   2.046       .  S
N817        N818   1.323       .  A
N817        C821   1.349       .  A
N818        C819   1.338       .  A
C819        C820   1.375       .  A
C819        H822   1.082       .  S
C820        C821   1.387       .  A
C820        C956   1.465       .  S
C821        H823   1.082       .  S
N824        N825   1.318       .  A
N824        C828   1.340       .  A
N825        C826   1.345       .  A
C826        C827   1.385       .  A
C826        H829   1.082       .  S
C827        C828   1.382       .  A
C827       C1040   1.468       .  S
C828        H830   1.081       .  S
C831        N832   1.357       .  A
C831        N836   1.356       .  A
C831       C1123   1.467       .  S
N832        C833   1.357       .  A
C833        N834   1.357       .  A
C833       C1024   1.468       .  S
N834        C835   1.357       .  A
C835        N836   1.356       .  A
C835       C1043   1.466       .  S
N837        N838   1.324       .  A
N837        C841   1.339       .  A
N837       Cu845   2.064       .  S
N838        C839   1.351       .  A
N838       Cu844   2.091       .  S
C839        C840   1.387       .  A
C839        H842   1.082       .  S
C840        C841   1.377       .  A
C840        C942   1.469       .  S
C841        H843   1.082       .  S
Cu844       N847   2.090       .  S
Cu845       N855   2.063       .  S
Cu846       N848   2.057       .  S
Cu846       N854   2.056       .  S
N847        N848   1.323       .  A
N847        C851   1.352   1_655  A
N848        C849   1.337       .  A
C849        C850   1.376   1_655  A
C849        H852   1.082       .  S
C850        C851   1.388       .  A
C850        C970   1.467       .  S
C851        H853   1.082       .  S
N854        N855   1.318       .  A
N854        C858   1.343       .  A
N855        C856   1.344       .  A
C856        C857   1.384       .  A
C856        H859   1.082       .  S
C857        C858   1.384       .  A
C857       C1027   1.471       .  S
C858        H860   1.082       .  S
N861        N862   1.322       .  A
N861        C865   1.340       .  A
N861       Cu869   2.061       .  S
N862        C863   1.347       .  A
N862       Cu868   2.067   1_566  S
C863        C864   1.383       .  A
C863        H866   1.082       .  S
C864        C865   1.379       .  A
C864        C969   1.463       .  S
C865        H867   1.082       .  S
Cu869       N879   2.060       .  S
Cu870       N872   2.068   1_565  S
Cu870       N878   2.068       .  S
N871        N872   1.324       .  A
N871        C875   1.345       .  A
N872        C873   1.342       .  A
C873        C874   1.379       .  A
C873        H876   1.082       .  S
C874        C875   1.381       .  A
C874        C955   1.461       .  S
C875        H877   1.082       .  S
N878        C882   1.345       .  A
N879        C880   1.342       .  A
C880        C881   1.382   1_556  A
C880        H883   1.082       .  S
C881       C1008   1.471       .  S
C882        H884   1.082       .  S
C885        N886   1.357       .  A
C885        N890   1.356       .  A
C885       C1011   1.468       .  S
N886        C887   1.357       .  A
C887        N888   1.358       .  A
C887       C1139   1.469       .  S
N888        C889   1.358       .  A
C889        N890   1.356       .  A
C889        C992   1.468       .  S
N891        N892   1.324       .  A
N891        C895   1.340       .  A
N891       Cu899   2.062       .  S
N892        C893   1.350       .  A
C893        C894   1.386       .  A
C893        H896   1.082       .  S
C894        C895   1.378       .  A
C894        C941   1.467       .  S
C895        H897   1.082       .  S
Cu898       N901   2.092       .  S
Cu899       N909   2.061       .  S
Cu900       N902   2.057       .  S
Cu900       N908   2.057   1_546  S
N901        N902   1.323       .  A
N901        C905   1.352       .  A
N902        C903   1.338       .  A
C903        C904   1.377       .  A
C903        H906   1.082       .  S
C904        C905   1.389       .  A
C904        C928   1.470       .  S
C905        H907   1.082       .  S
N908        C912   1.343   1_554  A
N909        C910   1.343       .  A
C910        C911   1.384       .  A
C910        H913   1.082       .  S
C911        C995   1.470       .  S
C912        H914   1.082       .  S
O915       Cu923   2.022       .  S
O915        C925   1.279       .  A
O916       Cu923   2.027       .  S
O916        C926   1.278       .  A
O917       Cu923   2.028       .  S
O917        C927   1.280       .  A
O918       Cu923   2.031       .  S
O918        C928   1.279       .  A
O919       Cu924   1.988       .  S
O919        C928   1.276       .  A
O920       Cu924   1.988       .  S
O920        C927   1.274       .  A
O921       Cu924   1.992       .  S
O921        C926   1.277       .  A
O922       Cu924   1.986       .  S
O922        C925   1.274       .  A
Cu923      Cu924   2.376       .  S
O929       Cu937   2.033       .  S
O929        C939   1.280       .  A
O930       Cu937   2.027       .  S
O930        C940   1.279       .  A
O931       Cu937   2.028       .  S
O931        C941   1.279       .  A
O932       Cu937   2.030       .  S
O932        C942   1.279       .  A
O933       Cu938   1.989       .  S
O933        C942   1.276       .  A
O934       Cu938   1.987       .  S
O934        C941   1.275       .  A
O935       Cu938   1.989       .  S
O935        C940   1.275       .  A
O936       Cu938   1.993       .  S
O936        C939   1.276       .  A
Cu937      Cu938   2.376       .  S
O943       Cu951   2.025       .  S
O943        C953   1.280       .  A
O944       Cu951   2.025       .  S
O944        C954   1.279       .  A
O945       Cu951   2.008       .  S
O945        C955   1.277       .  A
O946       Cu951   2.011       .  S
O946        C956   1.276       .  A
O947       Cu952   1.998       .  S
O947        C956   1.277       .  A
O948       Cu952   1.991       .  S
O948        C955   1.275       .  A
O949       Cu952   1.992       .  S
O949        C954   1.276       .  A
O950       Cu952   1.988       .  S
O950        C953   1.275       .  A
Cu951      Cu952   2.377       .  S
O957       Cu965   2.036       .  S
O957        C967   1.281       .  A
O958       Cu965   2.033       .  S
O958        C968   1.280       .  A
O959       Cu965   2.022       .  S
O959        C969   1.279       .  A
O960       Cu965   2.026       .  S
O960        C970   1.278       .  A
O961       Cu966   1.987       .  S
O961        C970   1.276       .  A
O962       Cu966   1.982       .  S
O962        C969   1.274       .  A
O963       Cu966   1.988       .  S
O963        C968   1.276       .  A
O964       Cu966   1.994       .  S
O964        C967   1.275       .  A
Cu965      Cu966   2.376       .  S
O971       Cu979   2.029       .  S
O971        C981   1.279       .  A
O972       Cu979   2.031       .  S
O972        C982   1.280       .  A
O973       Cu979   2.035       .  S
O973        C983   1.280       .  A
O974       Cu979   2.037       .  S
O974        C984   1.280       .  A
O975       Cu980   1.979       .  S
O975        C984   1.274       .  A
O976       Cu980   1.980       .  S
O976        C983   1.274       .  A
O977       Cu980   1.992       .  S
O977        C982   1.275       .  A
O978       Cu980   1.988       .  S
O978        C981   1.276       .  A
Cu979      Cu980   2.375       .  S
C985        C990   1.387       .  A
C985        C986   1.400       .  A
C985        S991   1.704       .  A
C986        C987   1.401       .  A
C986        H997   1.083       .  S
C987        C996   1.368       .  A
C987        C988   1.387       .  A
C988        C989   1.400       .  A
C988        S994   1.705       .  A
C989        C990   1.401       .  A
C992        C993   1.385       .  A
C993        H999   1.083       .  S
S994        C995   1.722       .  A
C995        C996   1.386       .  A
C996       H1000   1.083       .  S
C1001      C1006   1.387   1_556  A
C1001      C1002   1.401       .  A
C1001      S1007   1.705       .  A
C1002      C1003   1.401       .  A
C1002      H1013   1.083       .  S
C1003      C1012   1.369       .  A
C1003      C1004   1.387       .  A
C1005      H1014   1.083       .  S
S1007      C1008   1.723   1_556  A
C1009      H1015   1.083       .  S
C1011      C1012   1.386       .  A
C1012      H1016   1.083       .  S
C1017      C1022   1.387       .  A
C1017      C1018   1.399       .  A
C1017      S1023   1.705       .  A
C1018      C1019   1.401       .  A
C1018      H1029   1.083       .  S
C1019      C1028   1.367       .  A
C1019      C1020   1.387       .  A
C1020      C1021   1.400       .  A
C1020      S1026   1.706       .  A
C1021      C1022   1.401       .  A
C1021      H1030   1.083       .  S
C1022      C1025   1.368       .  A
S1023      C1024   1.722       .  A
C1024      C1025   1.386       .  A
C1025      H1031   1.083       .  S
S1026      C1027   1.723       .  A
C1027      C1028   1.386       .  A
C1028      H1032   1.083       .  S
C1033      C1038   1.387       .  A
C1033      C1034   1.399       .  A
C1033      S1039   1.706       .  A
C1034      C1035   1.401       .  A
C1034      H1045   1.083       .  S
C1035      C1044   1.367       .  A
C1035      C1036   1.387       .  A
C1036      C1037   1.398       .  A
C1036      S1042   1.704       .  A
C1037      C1038   1.400       .  A
C1037      H1046   1.083       .  S
C1038      C1041   1.365       .  A
S1039      C1040   1.722       .  A
C1040      C1041   1.385       .  A
C1041      H1047   1.082       .  S
S1042      C1043   1.722       .  A
C1043      C1044   1.385       .  A
C1044      H1048   1.083       .  S
C1049      C1054   1.387       .  A
C1049      C1050   1.400       .  A
C1049      S1055   1.703       .  A
C1050      C1051   1.400       .  A
C1050      H1061   1.083       .  S
C1051      C1060   1.370       .  A
C1051      C1052   1.386       .  A
C1052      C1053   1.405       .  A
C1052      S1058   1.708       .  A
C1053      C1054   1.405       .  A
C1053      H1062   1.083       .  S
C1054      C1057   1.374       .  A
S1055      C1056   1.723       .  A
C1056      C1057   1.388       .  A
C1057      H1063   1.083       .  S
S1058      C1059   1.726       .  A
C1059      C1060   1.385       .  A
C1060      H1064   1.082       .  S
C1065      C1070   1.387       .  A
C1065      C1066   1.403       .  A
C1065      S1071   1.708       .  A
C1066      C1067   1.404       .  A
C1066      H1077   1.083       .  S
C1067      C1076   1.374       .  A
C1067      C1068   1.386       .  A
C1068      C1069   1.403       .  A
C1068      S1074   1.708       .  A
C1069      C1070   1.403       .  A
C1069      H1078   1.083       .  S
C1070      C1073   1.373       .  A
S1071      C1072   1.725       .  A
C1072      C1073   1.388       .  A
C1073      H1079   1.083       .  S
S1074      C1075   1.725       .  A
C1075      C1076   1.388       .  A
C1076      H1080   1.083       .  S
C1081      C1082   1.400       .  A
C1081      S1087   1.706       .  A
C1082      C1083   1.402   1_556  A
C1082      H1093   1.083       .  S
C1083      C1092   1.368       .  A
C1084      C1085   1.398       .  A
C1084      S1090   1.704       .  A
C1085      C1086   1.400       .  A
C1085      H1094   1.083       .  S
C1086      C1089   1.365       .  A
S1087      C1088   1.722   1_556  A
C1089      H1095   1.083       .  S
S1090      C1091   1.722       .  A
C1092      H1096   1.083   1_554  S
C1097      C1098   1.398       .  A
C1098      H1109   1.083       .  S
C1099      C1108   1.367       .  A
C1099      C1100   1.387       .  A
C1100      C1101   1.402       .  A
C1100      S1106   1.707       .  A
C1101      C1102   1.403       .  A
C1101      H1110   1.083   1_554  S
C1102      C1105   1.372       .  A
S1103      C1104   1.723       .  A
C1104      C1105   1.387       .  A
C1105      H1111   1.083   1_554  S
S1106      C1107   1.724       .  A
C1107      C1108   1.384       .  A
C1108      H1112   1.083       .  S
C1113      C1118   1.387       .  A
C1113      C1114   1.400       .  A
C1113      S1119   1.705       .  A
C1114      C1115   1.401       .  A
C1114      H1125   1.083       .  S
C1115      C1124   1.367       .  A
C1115      C1116   1.387       .  A
C1116      C1117   1.399       .  A
C1116      S1122   1.705       .  A
C1117      C1118   1.401       .  A
C1117      H1126   1.083       .  S
C1118      C1121   1.368       .  A
S1119      C1120   1.723       .  A
C1120      C1121   1.385       .  A
C1121      H1127   1.083       .  S
S1122      C1123   1.722       .  A
C1123      C1124   1.385       .  A
C1124      H1128   1.083       .  S
C1129      C1134   1.387       .  A
C1129      C1130   1.400       .  A
C1129      S1135   1.705       .  A
C1130      C1131   1.401       .  A
C1130      H1141   1.083       .  S
C1131      C1140   1.368       .  A
C1131      C1132   1.387       .  A
C1132      C1133   1.399       .  A
C1133      C1134   1.400       .  A
C1136      C1137   1.385       .  A
C1137      H1143   1.083       .  S
C1139      C1140   1.386       .  A
C1140      H1144   1.083       .  S
C1145      C1150   1.387       .  A
C1145      C1146   1.403       .  A
C1145      S1151   1.704       .  A
C1146      C1147   1.402       .  A
C1146      H1157   1.083       .  S
C1147      C1156   1.373       .  A
C1147      C1148   1.387       .  A
C1149      H1158   1.083       .  S
C1152      C1153   1.384       .  A
C1153      H1159   1.083       .  S
C1155      C1156   1.387       .  A
C1156      H1160   1.083       .  S
C1161      C1166   1.387       .  A
C1161      C1162   1.401       .  A
C1161      S1167   1.705       .  A
C1162      C1163   1.402       .  A
C1162      H1173   1.083       .  S
C1163      C1172   1.369       .  A
C1163      C1164   1.387       .  A
C1164      C1165   1.400       .  A
C1164      S1170   1.704       .  A
C1165      C1166   1.401       .  A
C1165      H1174   1.083       .  S
C1166      C1169   1.369       .  A
S1167      C1168   1.724       .  A
C1168      C1169   1.385       .  A
C1169      H1175   1.083       .  S
S1170      C1171   1.722       .  A
C1171      C1172   1.386       .  A
C1172      H1176   1.083       .  S
