geometry optimzed in LAMMPS
_audit_creation_date              2020-12-01 
_audit_creation_method            'lammps2cif' 
_symmetry_space_group_name_H-M    'P1' 
_symmetry_Int_Tables_number       1 
_symmetry_cell_setting            triclinic 
loop_ 
_symmetry_equiv_pos_as_xyz 
  x,y,z 
_cell_length_a                    48.18673627 
_cell_length_b                    59.82704241457583 
_cell_length_c                    28.20913262214325 
_cell_angle_alpha                 90.31584209981148 
_cell_angle_beta                  89.41582533912828 
_cell_angle_gamma                 90.0847537473308 
loop_ 
_atom_site_label 
_atom_site_type_symbol 
_atom_site_fract_x 
_atom_site_fract_y 
_atom_site_fract_z 
_atom_site_charge 
C1          C  0.05717378  0.59571643  0.43369907     0.86400
C2          C  0.06248032  0.58344691  0.48097160    -0.53800
C3          C  0.04560827  0.56518131  0.48850430     0.09400
C4          C  0.02431193  0.56177623  0.44824694     0.20300
C5          C  0.05965959  0.57691778  0.39586921    -0.54500
C6          C  0.04264426  0.55886852  0.40328216     0.09500
C7          C  0.02606049  0.60146822  0.43457828    -0.54100
C8          C  0.00897799  0.58410706  0.44294949     0.10000
H9          H  0.07888032  0.58838296  0.50490684     0.14500
H10         H  0.00880388  0.54877420  0.45380649     0.00300
H11         H  0.07382214  0.57725124  0.36642996     0.14800
H12         H  0.01804127  0.61830127  0.43021133     0.14600
C13         C  0.06433235  0.53194854  0.60286123     0.86400
C14         C  0.06912554  0.51016276  0.57337627    -0.53800
C15         C  0.05135158  0.50740869  0.53620769     0.09400
C16         C  0.03101991  0.52734625  0.53190043     0.20300
C17         C  0.06669498  0.55090549  0.56578798    -0.54500
C18         C  0.04883254  0.54868605  0.52841099     0.09500
C19         C  0.03362342  0.53088580  0.61651122    -0.54100
C20         C  0.01594585  0.52934005  0.57979611     0.10000
H21         H  0.08481009  0.49785929  0.58061722     0.14500
H22         H  0.01692373  0.52575948  0.50312106     0.00300
H23         H  0.08076152  0.56493374  0.56978305     0.14800
H24         H  0.02636476  0.53188997  0.65308326     0.14600
C25         C  0.10804795  0.53685595  0.79666066     0.86400
C26         C  0.10066126  0.51554245  0.82537053    -0.53800
C27         C  0.11432164  0.51364115  0.86754270     0.09400
C28         C  0.13339295  0.53371250  0.87660759     0.20300
C29         C  0.10100832  0.55631564  0.83223443    -0.54500
C30         C  0.11442228  0.55452755  0.87514600     0.09500
C31         C  0.13969356  0.53732356  0.79246809    -0.54100
C32         C  0.15267586  0.53519705  0.83387751     0.10000
H33         H  0.08617205  0.50310810  0.81243389     0.14500
H34         H  0.14616634  0.53210268  0.90710139     0.00300
H35         H  0.08648138  0.56964484  0.82519628     0.14800
H36         H  0.15104919  0.53855707  0.75906198     0.14600
C37         C  0.09519140  0.60017017  0.97156343     0.86400
C38         C  0.09441723  0.58853774  0.92185789    -0.53800
C39         C  0.11075877  0.56958845  0.91830450     0.09400
C40         C  0.12604752  0.56464695  0.96501108     0.20300
C41         C  0.08743227  0.58126288  0.00702990    -0.54500
C42         C  0.10377094  0.56261257  0.00386879     0.09500
C43         C  0.12623770  0.60407353  0.98094032    -0.54100
C44         C  0.14202555  0.58573771  0.97671929     0.10000
H45         H  0.08232428  0.59488300  0.89265582     0.14500
H46         H  0.14029529  0.55081871  0.96452364     0.00300
H47         H  0.07194871  0.58260930  0.03441777     0.14800
H48         H  0.13515513  0.62003322  0.99142926     0.14600
O49         O  0.10760965  0.70833218  0.20519096    -0.57900
C50         C  0.18289979  0.70865383  0.12775676     0.74800
O51         O  0.10773240  0.70176714  0.04129696    -0.59000
C52         C  0.08208553  0.71243273  0.19881369     0.74700
C53         C  0.12196380  0.76354761  0.11835698     0.77100
Cd54       Cd  0.12268230  0.71531613  0.12200778     1.37500
O55         O  0.16703657  0.70291404  0.16172751    -0.57900
O56         O  0.12987137  0.75233178  0.15340441    -0.56700
C57         C  0.10148605  0.68222893  0.05511862     0.77100
O58         O  0.11378354  0.75255494  0.08248968    -0.59100
O59         O  0.17098263  0.71543465  0.09078956    -0.57500
O60         O  0.07501958  0.71684781  0.15680951    -0.57500
O61         O  0.10553047  0.67821960  0.09854024    -0.56700
O62         O  0.03585925  0.71192289  0.23252973    -0.57900
C63         C  0.46313640  0.70942004  0.32428194     0.74800
O64         O  0.04653505  0.69953485  0.39033604    -0.59000
C65         C  0.06193613  0.71291896  0.23858433     0.74700
C66         C  0.02739022  0.76359871  0.33160707     0.77100
Cd67       Cd  0.02372527  0.71592244  0.31883038     1.37500
O68         O  0.47654755  0.70541058  0.28623939    -0.57900
O69         O  0.02079727  0.75405861  0.29333094    -0.56700
C70         C  0.04944936  0.68042140  0.37113382     0.77100
O71         O  0.03324082  0.75104439  0.36619697    -0.59100
O72         O  0.97757814  0.71474808  0.35955567    -0.57500
O73         O  0.07002081  0.71500876  0.28088422    -0.57500
O74         O  0.03934235  0.67798637  0.33018291    -0.56700
C75         C  0.05073596  0.51508474  0.30056407     0.86400
C76         C  0.05743249  0.53632345  0.33035745    -0.53800
C77         C  0.04264087  0.53830846  0.37177633     0.09400
C78         C  0.02437511  0.51772917  0.38075613     0.20300
C79         C  0.05774408  0.49571974  0.33511359    -0.54500
C80         C  0.04362238  0.49698481  0.37783604     0.09500
C81         C  0.01927579  0.51481714  0.29615563    -0.54100
C82         C  0.00555931  0.51596754  0.33763995     0.10000
H83         H  0.07271214  0.54855025  0.31946053     0.14500
H84         H  0.01209816  0.51946051  0.41282403     0.00300
H85         H  0.07266773  0.48269060  0.32696497     0.14800
H86         H  0.00867124  0.51494482  0.26231845     0.14600
C87         C  0.06199186  0.45000115  0.46907203     0.86400
C88         C  0.06305784  0.46232029  0.42063553    -0.53800
C89         C  0.04591439  0.48067206  0.41851852     0.09400
C90         C  0.02924982  0.48406359  0.46479210     0.20300
C91         C  0.06802467  0.46875956  0.50650433    -0.54500
C92         C  0.05071404  0.48695296  0.50401120     0.09500
C93         C  0.03103528  0.44460950  0.47793833    -0.54100
C94         C  0.01399971  0.46221279  0.47490292     0.10000
H95         H  0.07647697  0.45711579  0.39152701     0.14500
H96         H  0.01482919  0.49721384  0.46396075     0.00300
H97         H  0.08362622  0.46772899  0.53340310     0.14800
H98         H  0.02306953  0.42812686  0.48677681     0.14600
C99         C  0.08573106  0.51985088  0.10346982     0.86400
C100        C  0.08222876  0.54070125  0.07191176    -0.53800
C101        C  0.10236634  0.54325888  0.03784907     0.09400
C102        C  0.12306194  0.52361324  0.03735172     0.20300
C103        C  0.08502504  0.50039071  0.06673381    -0.54500
C104        C  0.10455856  0.50256682  0.03087728     0.09500
C105        C  0.11550905  0.52018067  0.12107287    -0.54100
C106        C  0.13487456  0.52208612  0.08714339     0.10000
H107        H  0.06443648  0.55165545  0.07495472     0.14500
H108        H  0.14061054  0.52562719  0.01339735     0.00300
H109        H  0.06983696  0.48702140  0.06775065     0.14800
H110        H  0.12091877  0.51766546  0.15801473     0.14600
C111        C  0.09911841  0.45711469  0.93130530     0.86400
C112        C  0.09125631  0.46908407  0.97840981    -0.53800
C113        C  0.10685481  0.48783149  0.98750453     0.09400
C114        C  0.12825517  0.49261389  0.94794159     0.20300
C115        C  0.09632753  0.47548878  0.89304441    -0.54500
C116        C  0.11197397  0.49414149  0.90119753     0.09500
C117        C  0.13060724  0.45327940  0.93387547    -0.54100
C118        C  0.14622493  0.47154223  0.94445576     0.10000
H119        H  0.07513524  0.46304052  0.00219204     0.14500
H120        H  0.13996863  0.50721779  0.95451423     0.00300
H121        H  0.08361531  0.47407897  0.86195294     0.14800
H122        H  0.13957644  0.43696763  0.92684794     0.14600
O123        O  0.18448298  0.34851858  0.77786889    -0.57900
C124        C  0.09940107  0.33985899  0.72985238     0.74800
O125        O  0.12780604  0.30262366  0.85858893    -0.59000
C126        C  0.19736631  0.34396864  0.81563087     0.74700
C127        C  0.10939612  0.37239624  0.86105435     0.77100
Cd128      Cd  0.13684083  0.33707733  0.80960463     1.37500
O129        O  0.12553658  0.33996893  0.72313278    -0.57900
O130        O  0.12216354  0.37523187  0.82211350    -0.56700
C131        C  0.13235402  0.28957130  0.82379743     0.77100
O132        O  0.11085558  0.35307462  0.87923852    -0.59100
O133        O  0.09106748  0.33866955  0.77236852    -0.57500
O134        O  0.18242424  0.33773560  0.85023596    -0.57500
O135        O  0.13825191  0.29855587  0.78455011    -0.56700
O136        O  0.05397339  0.34510121  0.69776507    -0.57900
C137        C  0.47836719  0.34383407  0.62038124     0.74800
O138        O  0.05530246  0.34922371  0.53551114    -0.59000
C139        C  0.07935341  0.34027787  0.69072440     0.74700
C140        C  0.04004781  0.28883563  0.61296196     0.77100
Cd141      Cd  0.03881365  0.33694529  0.61567466     1.37500
O142        O  0.49370174  0.34996992  0.65437411    -0.57900
O143        O  0.03313091  0.30027179  0.64886554    -0.56700
C144        C  0.06122819  0.36896008  0.54863895     0.77100
O145        O  0.04690571  0.29956743  0.57595804    -0.59100
O146        O  0.99089856  0.33635313  0.58400069    -0.57500
O147        O  0.08630226  0.33499268  0.64876884    -0.57500
O148        O  0.05648380  0.37366428  0.59177995    -0.56700
C149        C  0.31785171  0.53276169  0.84657802     0.86400
C150        C  0.28790960  0.53038587  0.83043905    -0.53800
C151        C  0.26935855  0.52783307  0.86544916     0.09400
C152        C  0.28203329  0.52749236  0.91481578     0.20300
C153        C  0.31734728  0.55242910  0.88297285    -0.54500
C154        C  0.29868339  0.54935731  0.91994421     0.09500
C155        C  0.32368000  0.51231718  0.87850828    -0.54100
C156        C  0.30433900  0.50892112  0.91363175     0.10000
H157        H  0.28155004  0.53164944  0.79361881     0.14500
H158        H  0.26552367  0.52574611  0.94070576     0.00300
H159        H  0.33134541  0.56658613  0.88089653     0.14800
H160        H  0.34206206  0.50207200  0.87466462     0.14600
C161        C  0.30589484  0.59388795  0.02079827     0.86400
C162        C  0.30835983  0.57501714  0.05824035    -0.53800
C163        C  0.29165938  0.55681010  0.05016525     0.09400
C164        C  0.27469495  0.55923510  0.00425450     0.20300
C165        C  0.31271986  0.58195425  0.97333981    -0.54500
C166        C  0.29614824  0.56380951  0.96384602     0.09500
C167        C  0.27469759  0.59886796  0.01921962    -0.54100
C168        C  0.25868206  0.58093745  0.01040582     0.10000
H169        H  0.32205005  0.57571410  0.08820938     0.14500
H170        H  0.25985655  0.54582367  0.99784030     0.00300
H171        H  0.32931409  0.58739089  0.94987291     0.14800
H172        H  0.26586563  0.61548000  0.02360365     0.14600
C173        C  0.34167289  0.60241260  0.47594574     0.86400
C174        C  0.33550439  0.58296623  0.44048307    -0.53800
C175        C  0.35317989  0.56516620  0.44357803     0.09400
C176        C  0.37470584  0.56866948  0.48255043     0.20300
C177        C  0.34050970  0.59071230  0.52528683    -0.54500
C178        C  0.35789580  0.57248212  0.52867806     0.09500
C179        C  0.37260156  0.60790975  0.46711710    -0.54100
C180        C  0.38987915  0.59045052  0.47109950     0.10000
H181        H  0.31858058  0.58286626  0.41580547     0.14500
H182        H  0.38914961  0.55558662  0.48422135     0.00300
H183        H  0.32664641  0.59594645  0.55374379     0.14800
H184        H  0.38030251  0.62441506  0.45779335     0.14600
C185        C  0.35305630  0.53887020  0.64828834     0.86400
C186        C  0.38455718  0.53969619  0.65272817    -0.53800
C187        C  0.39835298  0.53813683  0.61129000     0.09400
C188        C  0.37958495  0.53576169  0.56823429     0.20300
C189        C  0.34576337  0.55785345  0.61274246    -0.54500
C190        C  0.36004792  0.55639474  0.57010392     0.09500
C191        C  0.34684328  0.51723971  0.61931283    -0.54100
C192        C  0.36167040  0.51501221  0.57804733     0.10000
H193        H  0.39515128  0.54011239  0.68657350     0.14500
H194        H  0.39200783  0.53385800  0.53637677     0.00300
H195        H  0.33057344  0.57077355  0.62006137     0.14800
H196        H  0.33202821  0.50477165  0.63097408     0.14600
O197        O  0.28570959  0.71335106  0.22319819    -0.57900
C198        C  0.21358951  0.70906169  0.13126145     0.74800
O199        O  0.28468559  0.75058779  0.08969858    -0.59000
C200        C  0.31180661  0.71346933  0.21613830     0.74700
C201        C  0.29869830  0.67948751  0.08753659     0.77100
Cd202      Cd  0.27369008  0.71609746  0.13740897     1.37500
O203        O  0.22637622  0.70483423  0.16929187    -0.57900
O204        O  0.28628197  0.67770074  0.12707435    -0.56700
C205        C  0.27741482  0.76363515  0.12320569     0.77100
O206        O  0.29797316  0.69851993  0.06781322    -0.59100
O207        O  0.22850196  0.71511715  0.09645180    -0.57500
O208        O  0.31996883  0.71456273  0.17349148    -0.57500
O209        O  0.26914504  0.75461876  0.16121871    -0.56700
O210        O  0.35736136  0.70873519  0.24835563    -0.57900
C211        C  0.43230205  0.70952476  0.32702694     0.74800
O212        O  0.36413172  0.75390820  0.37206493    -0.59000
C213        C  0.33186556  0.71320177  0.25523302     0.74700
C214        C  0.34710576  0.68323215  0.39344875     0.77100
Cd215      Cd  0.37176135  0.71648907  0.33127054     1.37500
O216        O  0.41706414  0.70446544  0.29217342    -0.57900
O217        O  0.35159332  0.70286625  0.40890702    -0.56700
C218        C  0.37000752  0.76470492  0.33463852     0.77100
O219        O  0.35527388  0.67919074  0.35147681    -0.59100
O220        O  0.41965378  0.71604460  0.36412792    -0.57500
O221        O  0.32467727  0.71822689  0.29719669    -0.57500
O222        O  0.37619219  0.75329919  0.29832715    -0.56700
O223        O  0.37533470  0.34025908  0.71543811    -0.57900
C224        C  0.44757351  0.34376270  0.62326628     0.74800
O225        O  0.37841660  0.30177194  0.58256320    -0.59000
C226        C  0.34925444  0.34021302  0.70911848     0.74700
C227        C  0.36020367  0.37251420  0.57996618     0.77100
Cd228      Cd  0.38721059  0.33708532  0.62929645     1.37500
O229        O  0.43418627  0.34856952  0.66091871    -0.57900
O230        O  0.36069240  0.35310934  0.56144956    -0.56700
C231        C  0.38306676  0.28946761  0.61812976     0.77100
O232        O  0.37415260  0.37531958  0.61732128    -0.59100
O233        O  0.43314056  0.33744952  0.58840442    -0.57500
O234        O  0.34112357  0.33912604  0.66673332    -0.57500
O235        O  0.38893891  0.29924429  0.65651460    -0.56700
O236        O  0.30387714  0.34581547  0.74259720    -0.57900
C237        C  0.22814842  0.34429582  0.81911179     0.74800
O238        O  0.29587096  0.30077388  0.86564884    -0.59000
C239        C  0.32910802  0.34056536  0.74865019     0.74700
C240        C  0.31225221  0.37037201  0.89015839     0.77100
Cd241      Cd  0.28864550  0.33770273  0.82491860     1.37500
O242        O  0.24404835  0.34996645  0.78514039    -0.57900
O243        O  0.30621516  0.37467629  0.84760269    -0.56700
C244        C  0.28935160  0.28959545  0.82905023     0.77100
O245        O  0.30647871  0.35078882  0.90426724    -0.59100
O246        O  0.24011727  0.33757567  0.85610502    -0.57500
O247        O  0.33585970  0.33482248  0.79003850    -0.57500
O248        O  0.28329272  0.30058966  0.79257234    -0.56700
C249        C  0.29625621  0.51348941  0.15326459     0.86400
C250        C  0.26475231  0.51177203  0.15671687    -0.53800
C251        C  0.25188195  0.51372117  0.11517763     0.09400
C252        C  0.27127643  0.51637125  0.07268065     0.20300
C253        C  0.30466629  0.49456949  0.11728743    -0.54500
C254        C  0.29145274  0.49607490  0.07413598     0.09500
C255        C  0.30261304  0.53523736  0.12561148    -0.54100
C256        C  0.28932044  0.53700645  0.08309761     0.10000
H257        H  0.25331586  0.50970066  0.18985825     0.14500
H258        H  0.25818440  0.51842336  0.04198657     0.00300
H259        H  0.31980512  0.48169437  0.12435971     0.14800
H260        H  0.31621400  0.54806903  0.13957370     0.14600
C261        C  0.31379116  0.45155356  0.97715215     0.86400
C262        C  0.32170693  0.47120044  0.94350345    -0.53800
C263        C  0.30425689  0.48922155  0.94671441     0.09400
C264        C  0.28159940  0.48591596  0.98431686     0.20300
C265        C  0.31325409  0.46256423  0.02756543    -0.54500
C266        C  0.29616814  0.48099503  0.03119367     0.09500
C267        C  0.28321750  0.44692766  0.96504081    -0.54100
C268        C  0.26609833  0.46460697  0.96974920     0.10000
H269        H  0.33860394  0.47080224  0.91814882     0.14500
H270        H  0.26807626  0.49987109  0.98699368     0.00300
H271        H  0.32545004  0.45647422  0.05688087     0.14800
H272        H  0.27628246  0.43099854  0.95100991     0.14600
C273        C  0.34831083  0.45694040  0.51731389     0.86400
C274        C  0.34551958  0.47571688  0.55539304    -0.53800
C275        C  0.36211275  0.49407075  0.54748473     0.09400
C276        C  0.38015367  0.49132841  0.50205909     0.20300
C277        C  0.34199916  0.46925227  0.47056191    -0.54500
C278        C  0.35860843  0.48755418  0.46235920     0.09500
C279        C  0.37940684  0.45166654  0.51549239    -0.54100
C280        C  0.39591897  0.46922416  0.50680285     0.10000
H281        H  0.33088465  0.47512119  0.58454735     0.14500
H282        H  0.39543762  0.50445989  0.49621075     0.00300
H283        H  0.32519667  0.46435412  0.44744385     0.14800
H284        H  0.38787626  0.43493450  0.51931963     0.14600
C285        C  0.33950363  0.51942710  0.34680442     0.86400
C286        C  0.37017354  0.52072839  0.33301837    -0.53800
C287        C  0.38789909  0.52269547  0.36964095     0.09400
C288        C  0.37284519  0.52483740  0.41743287     0.20300
C289        C  0.33742327  0.50075767  0.38447963    -0.54500
C290        C  0.35523264  0.50350070  0.42175573     0.09500
C291        C  0.33456568  0.54139410  0.37544386    -0.54100
C292        C  0.35234696  0.54447562  0.41252312     0.10000
H293        H  0.37730625  0.51982820  0.29638087     0.14500
H294        H  0.38687131  0.52680424  0.44610803     0.00300
H295        H  0.32354617  0.48657493  0.38099899     0.14800
H296        H  0.31909518  0.55371641  0.36723310     0.14600
O297        O  0.17261601  0.84684952  0.16819982    -0.57900
C298        C  0.08645209  0.83862442  0.21342675     0.74800
O299        O  0.10459963  0.85203771  0.06219588    -0.59000
C300        C  0.18614711  0.84257153  0.13038547     0.74700
C301        C  0.12265999  0.78805969  0.12115465     0.77100
Cd302      Cd  0.12579114  0.83579372  0.13481359     1.37500
O303        O  0.11241484  0.83997256  0.22036600    -0.57900
O304        O  0.13173885  0.79741113  0.15813834    -0.56700
C305        C  0.10203624  0.87138131  0.08044970     0.77100
O306        O  0.11449705  0.80081631  0.08834800    -0.59100
O307        O  0.07890148  0.83629267  0.17090772    -0.57500
O308        O  0.17186712  0.83674300  0.09502663    -0.57500
O309        O  0.11157841  0.87402898  0.12175616    -0.56700
O310        O  0.04031341  0.84232121  0.24564334    -0.57900
C311        C  0.46531052  0.84350972  0.32564626     0.74800
O312        O  0.03371423  0.79930119  0.37064794    -0.59000
C313        C  0.06596479  0.83895735  0.25260474     0.74700
C314        C  0.04969693  0.86857222  0.39346581     0.77100
Cd315      Cd  0.02565188  0.83608905  0.32942217     1.37500
O316        O  0.48104144  0.84946840  0.29167907    -0.57900
O317        O  0.04353409  0.87282232  0.35094119    -0.56700
C318        C  0.02756497  0.78808378  0.33391505     0.77100
O319        O  0.04378789  0.84910140  0.40809017    -0.59100
O320        O  0.97742857  0.83595658  0.36180568    -0.57500
O321        O  0.07301265  0.83516708  0.29485725    -0.57500
O322        O  0.02100748  0.79902405  0.29763771    -0.56700
C323        C  0.05697800  0.01557110  0.64167790     0.86400
C324        C  0.02593375  0.01814863  0.64984387    -0.53800
C325        C  0.01144161  0.02123615  0.61062849     0.09400
C326        C  0.02887471  0.02067578  0.56483050     0.20300
C327        C  0.05942426  0.99532671  0.60633129    -0.54500
C328        C  0.04453312  0.99808933  0.56481069     0.09500
C329        C  0.06641251  0.03568763  0.61129639    -0.54100
C330        C  0.05096466  0.03910329  0.57168306     0.10000
H331        H  0.01587773  0.01660552  0.68442006     0.14500
H332        H  0.01557887  0.02270963  0.53442512     0.00300
H333        H  0.07195328  0.98068962  0.61304528     0.14800
H334        H  0.08334860  0.04654588  0.62166197     0.14600
C335        C  0.05826618  0.95097103  0.46936261     0.86400
C336        C  0.06564134  0.96961769  0.43321033    -0.53800
C337        C  0.04935309  0.98833237  0.43604799     0.09400
C338        C  0.02694466  0.98639849  0.47600578     0.20300
C339        C  0.05973423  0.96290868  0.51828056    -0.54500
C340        C  0.04374574  0.98193642  0.52235005     0.09500
C341        C  0.02728238  0.94669739  0.46100246    -0.54100
C342        C  0.01086685  0.96472566  0.46448593     0.10000
H343        H  0.08206065  0.96851231  0.40739359     0.14500
H344        H  0.01212479  0.00013636  0.47845440     0.00300
H345        H  0.07313241  0.95709038  0.54627345     0.14800
H346        H  0.01879501  0.93043871  0.45152066     0.14600
C347        C  0.09254127  0.01692157  0.83824294     0.86400
C348        C  0.12294736  0.01594909  0.82299198    -0.53800
C349        C  0.14107720  0.01745020  0.85850397     0.09400
C350        C  0.12722421  0.02049502  0.90729346     0.20300
C351        C  0.08867830  0.99870330  0.87651626    -0.54500
C352        C  0.10699716  0.00040277  0.91329079     0.09500
C353        C  0.09018480  0.03922794  0.86706393    -0.54100
C354        C  0.10919959  0.04153053  0.90267206     0.10000
H355        H  0.12952563  0.01568957  0.78604108     0.14500
H356        H  0.14272736  0.02223633  0.93447271     0.00300
H357        H  0.07268982  0.98597002  0.87479493     0.14800
H358        H  0.07488554  0.05194582  0.86051477     0.14600
C359        C  0.09577552  0.95535915  0.01249357     0.86400
C360        C  0.09441327  0.97468057  0.04999386    -0.53800
C361        C  0.11198126  0.99223893  0.04065558     0.09400
C362        C  0.12887738  0.98832743  0.99513331     0.20300
C363        C  0.09027243  0.96722795  0.96452792    -0.54500
C364        C  0.10775634  0.98495767  0.95553548     0.09500
C365        C  0.12684667  0.94910259  0.01099694    -0.54100
C366        C  0.14398066  0.96615530  0.00097812     0.10000
H367        H  0.08136103  0.97481099  0.08106920     0.14500
H368        H  0.14322859  0.00113123  0.98838652     0.00300
H369        H  0.07394837  0.96206408  0.94064471     0.14800
H370        H  0.13477039  0.93235937  0.01698211     0.14600
C371        C  0.06871651  0.09594526  0.50986800     0.86400
C372        C  0.07082776  0.07721429  0.54792252    -0.53800
C373        C  0.05350267  0.05935944  0.54040273     0.09400
C374        C  0.03588634  0.06233011  0.49620379     0.20300
C375        C  0.07401621  0.08341069  0.46209404    -0.54500
C376        C  0.05674281  0.06534797  0.45509558     0.09500
C377        C  0.03751521  0.10178331  0.50991654    -0.54100
C378        C  0.02067094  0.08432098  0.50188090     0.10000
H379        H  0.08406682  0.07773166  0.57827370     0.14500
H380        H  0.02058169  0.04967316  0.49219004     0.00300
H381        H  0.09002711  0.08833014  0.43692823     0.14800
H382        H  0.02928921  0.11852840  0.51525139     0.14600
C383        C  0.06911238  0.03188715  0.33703413     0.86400
C384        C  0.03817627  0.03407229  0.32604640    -0.53800
C385        C  0.02071621  0.03385048  0.36413141     0.09400
C386        C  0.03637530  0.02989403  0.41029914     0.20300
C387        C  0.07475738  0.05021113  0.37498616    -0.54500
C388        C  0.05735619  0.04925339  0.41377581     0.09500
C389        C  0.07022271  0.00937777  0.36462244    -0.54100
C390        C  0.05301434  0.00839204  0.40365377     0.10000
H391        H  0.03099363  0.03487284  0.28981041     0.14500
H392        H  0.02316045  0.02805334  0.44004699     0.00300
H393        H  0.09056031  0.06298531  0.37059919     0.14800
H394        H  0.08172584  0.99492680  0.35354199     0.14600
C395        C  0.10451333  0.10056489  0.96353909     0.86400
C396        C  0.09736468  0.08143166  0.92814164    -0.53800
C397        C  0.11345330  0.06263630  0.93196293     0.09400
C398        C  0.13556480  0.06522711  0.97114383     0.20300
C399        C  0.10214584  0.08902904  0.01271216    -0.54500
C400        C  0.11817022  0.07004602  0.01687989     0.09500
C401        C  0.13562567  0.10472195  0.95550918    -0.54100
C402        C  0.15187905  0.08669471  0.96016890     0.10000
H403        H  0.08054821  0.08219016  0.90335571     0.14500
H404        H  0.15053637  0.05167459  0.97256081     0.00300
H405        H  0.08828934  0.09495981  0.04055833     0.14800
H406        H  0.14440056  0.12100659  0.94713792     0.14600
C407        C  0.10989741  0.03864160  0.13897547     0.86400
C408        C  0.14160199  0.03827203  0.14138856    -0.53800
C409        C  0.15502007  0.03526530  0.09948158     0.09400
C410        C  0.13503131  0.03259548  0.05812152     0.20300
C411        C  0.10395904  0.05727841  0.10153961    -0.54500
C412        C  0.11775769  0.05418843  0.05881423     0.09500
C413        C  0.10185376  0.01671628  0.11314285    -0.54100
C414        C  0.11519307  0.01312762  0.07085439     0.10000
H415        H  0.15258975  0.04017211  0.17462843     0.14500
H416        H  0.14568503  0.03011694  0.02533649     0.00300
H417        H  0.09072183  0.07151658  0.10723024     0.14800
H418        H  0.08732107  0.00485332  0.12842238     0.14600
O419        O  0.11905705  0.20997801  0.74103620    -0.57900
C420        C  0.19301383  0.21024595  0.82309905     0.74800
O421        O  0.12551172  0.25448262  0.86463802    -0.59000
C422        C  0.09346356  0.21419484  0.74761589     0.74700
C423        C  0.10719229  0.18362923  0.88466225     0.77100
Cd424      Cd  0.13259213  0.21707001  0.82430453     1.37500
O425        O  0.17826896  0.20427125  0.78823256    -0.57900
O426        O  0.11527382  0.17978925  0.84256642    -0.56700
C427        C  0.13151310  0.26511610  0.82703321     0.77100
O428        O  0.11167861  0.20317297  0.90066967    -0.59100
O429        O  0.17988378  0.21752436  0.85905486    -0.57500
O430        O  0.08590416  0.21897952  0.78953867    -0.57500
O431        O  0.13731009  0.25359973  0.79069142    -0.56700
O432        O  0.04756493  0.21324864  0.71503639    -0.57900
C433        C  0.47528428  0.21047916  0.62781954     0.74800
O434        O  0.04574403  0.25141637  0.58163777    -0.59000
C435        C  0.07363769  0.21433775  0.70828887     0.74700
C436        C  0.06061512  0.18062961  0.57576428     0.77100
Cd437      Cd  0.03569468  0.21672757  0.62959472     1.37500
O438        O  0.48885549  0.20641826  0.66509102    -0.57900
O439        O  0.05092495  0.17839720  0.61735064    -0.56700
C440        C  0.03956937  0.26436080  0.61591357     0.77100
O441        O  0.05774203  0.19972435  0.55702159    -0.59100
O442        O  0.98952008  0.21573676  0.59166810    -0.57500
O443        O  0.08192310  0.21619620  0.66582574    -0.57500
O444        O  0.03245280  0.25523140  0.65439232    -0.56700
O445        O  0.29170785  0.84411730  0.20526486    -0.57900
C446        C  0.21692449  0.84275874  0.12762188     0.74800
O447        O  0.29727863  0.85145716  0.04589603    -0.59000
C448        C  0.31701188  0.83894080  0.19867307     0.74700
C449        C  0.27805668  0.78813018  0.11997024     0.77100
Cd450      Cd  0.27725974  0.83634023  0.12293949     1.37500
O451        O  0.23210638  0.84800371  0.16243799    -0.57900
O452        O  0.27064947  0.79962848  0.15549935    -0.56700
C453        C  0.30126724  0.87095313  0.06263482     0.77100
O454        O  0.28558366  0.79882545  0.08320281    -0.59100
O455        O  0.22957395  0.83636106  0.09040488    -0.57500
O456        O  0.32410930  0.83325973  0.15702752    -0.57500
O457        O  0.29298544  0.87418621  0.10485043    -0.56700
O458        O  0.42160853  0.84821070  0.28514180    -0.57900
C459        C  0.33691124  0.83879582  0.23783948     0.74800
O460        O  0.36484822  0.80223820  0.36601852    -0.59000
C461        C  0.43455763  0.84361300  0.32280670     0.74700
C462        C  0.34745621  0.87310611  0.36625003     0.77100
Cd463      Cd  0.37428627  0.83679830  0.31711472     1.37500
O464        O  0.36302754  0.83837416  0.23103744    -0.57900
O465        O  0.35981614  0.87526100  0.32671901    -0.56700
C466        C  0.37032717  0.78921020  0.33151558     0.77100
O467        O  0.34896856  0.85404678  0.38569520    -0.59100
O468        O  0.32850687  0.83852495  0.28040672    -0.57500
O469        O  0.41971748  0.83757813  0.35771393    -0.57500
O470        O  0.37669465  0.79826497  0.29255687    -0.56700
C471        C  0.30601208  0.01783171  0.80884998     0.86400
C472        C  0.31523613  0.03870855  0.83739794    -0.53800
C473        C  0.30113222  0.04222619  0.87871814     0.09400
C474        C  0.28039929  0.02314098  0.88930884     0.20300
C475        C  0.31084740  0.99831698  0.84454093    -0.54500
C476        C  0.29703689  0.00110518  0.88745043     0.14300
C477        C  0.27450306  0.01967759  0.80525599    -0.54100
C478        C  0.26074263  0.02186172  0.84715420     0.10000
H479        H  0.33203967  0.04953457  0.82627417     0.14500
H480        H  0.26950331  0.02549699  0.92187306     0.00300
H481        H  0.32392022  0.98400625  0.83680513     0.14800
H482        H  0.26389307  0.01898269  0.77146215     0.14600
C483        C  0.31026161  0.95457702  0.98305693     0.86400
C484        C  0.31268162  0.96603422  0.93356119    -0.53800
C485        C  0.29689127  0.98521899  0.92941022     0.09400
C486        C  0.27987936  0.99031948  0.97538797     0.20300
C487        C  0.31795353  0.97375248  0.01803783    -0.54500
C488        C  0.30207789  0.99268571  0.01438671     0.09500
C489        C  0.27915789  0.95091040  0.99123728    -0.54100
C490        C  0.26335262  0.96909765  0.98644430     0.10000
H491        H  0.32631538  0.95995872  0.90553407     0.14500
H492        H  0.26504257  0.00396725  0.97443937     0.00300
H493        H  0.33504408  0.97289266  0.04228755     0.14800
H494        H  0.26996644  0.93478194  0.99974279     0.14600
C495        C  0.34543583  0.01961520  0.61015773     0.86400
C496        C  0.34123337  0.04029321  0.57819593    -0.53800
C497        C  0.35999188  0.04214341  0.54153543     0.09400
C498        C  0.37947255  0.02182326  0.53830416     0.20300
C499        C  0.34257461  0.99974299  0.57474483    -0.54500
C500        C  0.36024116  0.00091179  0.53598475     0.09500
C501        C  0.37598414  0.01987864  0.62344935    -0.54100
C502        C  0.39387297  0.02113926  0.58671266     0.10000
H503        H  0.32488625  0.05234581  0.58466973     0.14500
H504        H  0.39431608  0.02314778  0.50943695     0.00300
H505        H  0.32717525  0.98668031  0.57881873     0.14800
H506        H  0.38303350  0.01896564  0.65991750     0.14600
C507        C  0.34289871  0.95612453  0.43803032     0.86400
C508        C  0.34073161  0.96796194  0.48716051    -0.53800
C509        C  0.35965107  0.98501927  0.49358355     0.09400
C510        C  0.37882260  0.98788097  0.44960620     0.20300
C511        C  0.34008343  0.97574734  0.40249389    -0.54500
C512        C  0.35915805  0.99248948  0.40821509     0.09500
C513        C  0.37329127  0.94862915  0.43330317    -0.54100
C514        C  0.39214995  0.96484971  0.43951150     0.10000
H515        H  0.32483285  0.96382986  0.51310112     0.14500
H516        H  0.39405714  0.00069157  0.45337208     0.00300
H517        H  0.32404412  0.97679666  0.37619274     0.14800
H518        H  0.37956784  0.93146196  0.42628673     0.14600
C519        C  0.32054332  0.09982969  0.93686633     0.86400
C520        C  0.32522422  0.08821898  0.98532443    -0.53800
C521        C  0.30751784  0.07061153  0.99389113     0.09400
C522        C  0.28681128  0.06719912  0.95356059     0.20300
C523        C  0.32236895  0.08028951  0.90019495    -0.54500
C524        C  0.30442269  0.06294213  0.90911857     0.09500
C525        C  0.28950069  0.10634576  0.93678786    -0.54100
C526        C  0.27193604  0.08943513  0.94624722     0.10000
H527        H  0.34147077  0.09322540  0.00951023     0.14500
H528        H  0.27233765  0.05443486  0.95978342     0.00300
H529        H  0.33610157  0.07993558  0.87001752     0.14800
H530        H  0.28196711  0.12315290  0.93025387     0.14600
C531        C  0.32274745  0.03751141  0.10981099     0.86400
C532        C  0.32518814  0.01555683  0.07999963    -0.53800
C533        C  0.30624210  0.01358853  0.04431312     0.09400
C534        C  0.28820263  0.03468432  0.04047701     0.20300
C535        C  0.32672750  0.05614810  0.07238259    -0.54500
C536        C  0.30838382  0.05482537  0.03547874     0.09500
C537        C  0.29231882  0.03852749  0.12492745    -0.54100
C538        C  0.27437974  0.03749984  0.08921329     0.10000
H539        H  0.34063018  0.00286829  0.08590722     0.14500
H540        H  0.27261008  0.03315876  0.01338746     0.00300
H541        H  0.34269825  0.06887166  0.07478497     0.14800
H542        H  0.28546641  0.03890368  0.16177535     0.14600
C543        C  0.35506107  0.10046757  0.47996863     0.86400
C544        C  0.35278135  0.08916196  0.43032360    -0.53800
C545        C  0.36822541  0.06989115  0.42524035     0.09400
C546        C  0.38502219  0.06454790  0.47053593     0.20300
C547        C  0.34741420  0.08146794  0.51520208    -0.54500
C548        C  0.36299742  0.06243056  0.51025635     0.09500
C549        C  0.38633919  0.10387572  0.48781627    -0.54100
C550        C  0.40178261  0.08538909  0.48228169     0.10000
H551        H  0.33943397  0.09550681  0.40276590     0.14500
H552        H  0.39989538  0.05095564  0.46855544     0.00300
H553        H  0.33195295  0.08275664  0.54264169     0.14800
H554        H  0.39575698  0.11981875  0.49707367     0.14600
C555        C  0.35590778  0.03617752  0.30685212     0.86400
C556        C  0.34618253  0.01619754  0.33721327    -0.53800
C557        C  0.36135212  0.01293933  0.37718191     0.09400
C558        C  0.38307323  0.03156332  0.38430314     0.20300
C559        C  0.35304361  0.05659102  0.34152603    -0.54500
C560        C  0.36740654  0.05393072  0.38322622     0.09500
C561        C  0.38708648  0.03309255  0.29976093    -0.54100
C562        C  0.40170127  0.03144422  0.33966757     0.10000
H563        H  0.32942982  0.00524800  0.32651440     0.14500
H564        H  0.39448374  0.02951672  0.41610327     0.00300
H565        H  0.34052601  0.07121021  0.33459924     0.14800
H566        H  0.39652948  0.03163608  0.26489047     0.14600
O567        O  0.42921115  0.20566507  0.66163293    -0.57900
C568        C  0.34329983  0.21418719  0.69848325     0.74800
O569        O  0.37681722  0.25355164  0.58005763    -0.59000
C570        C  0.44450857  0.21060092  0.62634803     0.74700
C571        C  0.36205783  0.18362490  0.55852979     0.77100
Cd572      Cd  0.38410965  0.21705892  0.62257179     1.37500
O573        O  0.36882146  0.21029894  0.70554684    -0.57900
O574        O  0.36883100  0.17951373  0.60085485    -0.56700
C575        C  0.38242752  0.26498642  0.61675444     0.77100
O576        O  0.36613206  0.20345288  0.54430460    -0.59100
O577        O  0.33645183  0.21843554  0.65631864    -0.57500
O578        O  0.43197656  0.21688979  0.58959602    -0.57500
O579        O  0.38808241  0.25427653  0.65379823    -0.56700
O580        O  0.23769958  0.20505890  0.78454818    -0.57900
C581        C  0.32286354  0.21462015  0.73763148     0.74800
O582        O  0.29509973  0.25268640  0.86164045    -0.59000
C583        C  0.22383990  0.21036961  0.82139508     0.74700
C584        C  0.31078541  0.18248345  0.86954426     0.77100
Cd585      Cd  0.28426134  0.21735832  0.81663395     1.37500
O586        O  0.29687108  0.21317976  0.73091837    -0.57900
O587        O  0.30128939  0.17973402  0.82824491    -0.56700
C588        C  0.28824514  0.26510406  0.82738012     0.77100
O589        O  0.30656234  0.20145115  0.88870758    -0.59100
O590        O  0.33060625  0.21708739  0.78000588    -0.57500
O591        O  0.23783428  0.21723204  0.85630656    -0.57500
O592        O  0.27996202  0.25542324  0.79022063    -0.56700
C593        C  0.34116773  0.12356908  0.48583961    -0.00200
C594        C  0.35320176  0.14116075  0.45928448    -0.12100
C595        C  0.35863843  0.16197733  0.48078081     0.02000
C596        C  0.35027030  0.16567188  0.52827497    -0.00300
C597        C  0.33206136  0.15028383  0.54938786    -0.12000
C598        C  0.32628336  0.12978558  0.52739844     0.01900
H599        H  0.36311740  0.13735893  0.42550293     0.14900
H600        H  0.32295233  0.15401917  0.58385601     0.14900
C601        C  0.30411257  0.11642611  0.54698802     0.36500
C602        C  0.37570653  0.17789144  0.45555655     0.36400
N603        N  0.28610224  0.10599350  0.56298701    -0.43800
N604        N  0.38939526  0.19055254  0.43503980    -0.43800
C605        C  0.33855005  0.03908238  0.15626618    -0.00200
C606        C  0.34503415  0.01888789  0.17864908    -0.12100
C607        C  0.34735935  0.01734881  0.22746316     0.02000
C608        C  0.34447490  0.03667851  0.25677422    -0.00300
C609        C  0.33959970  0.05723875  0.23454304    -0.12000
C610        C  0.33637046  0.05859683  0.18525828     0.01900
H611        H  0.34642495  0.00341690  0.15908385     0.14900
H612        H  0.33872171  0.07249185  0.25524098     0.14900
C613        C  0.32821617  0.07994467  0.16623354     0.36500
C614        C  0.35427528  0.99547446  0.24565668     0.36400
N615        N  0.32141097  0.09702730  0.15122738    -0.43800
N616        N  0.35971192  0.97792446  0.25990609    -0.43800
C617        C  0.33744678  0.12125410  0.92846569    -0.00200
C618        C  0.33137876  0.13904495  0.96010070    -0.12100
C619        C  0.32452777  0.16025401  0.94249165     0.02000
C620        C  0.32556364  0.16392525  0.89311762    -0.00300
C621        C  0.33926741  0.14810191  0.86439501    -0.12000
C622        C  0.34654940  0.12722538  0.88247487     0.01900
H623        H  0.32636865  0.13534878  0.99680070     0.14900
H624        H  0.34351829  0.15177807  0.82740913     0.14900
C625        C  0.36453713  0.11308936  0.85433400     0.36500
C626        C  0.31357500  0.17680187  0.97498632     0.36400
N627        N  0.37929020  0.10199590  0.83172076    -0.43800
N628        N  0.30491399  0.19007029  0.00119474    -0.43800
C629        C  0.31751679  0.01693929  0.75763008    -0.00200
C630        C  0.32280587  0.03747369  0.73491268    -0.12100
C631        C  0.32971893  0.03893564  0.68705415     0.02000
C632        C  0.32939465  0.01960307  0.65751924    -0.00300
C633        C  0.32201452  0.99914895  0.67909897    -0.12000
C634        C  0.31571965  0.99774508  0.72802363     0.01900
H635        H  0.32106427  0.05312504  0.75395876     0.14900
H636        H  0.32228293  0.98386653  0.65844183     0.14900
C637        C  0.30688096  0.97640569  0.74633883     0.36500
C638        C  0.33878008  0.06071551  0.67095712     0.36400
N639        N  0.29973270  0.95923133  0.76071139    -0.43800
N640        N  0.34597894  0.07826195  0.65878720    -0.43800
C641        C  0.33311666  0.89240719  0.38867981    -0.00200
C642        C  0.33363213  0.89508430  0.43801272    -0.12100
C643        C  0.32917578  0.91622020  0.45863271     0.02000
C644        C  0.32523002  0.93513839  0.42907701    -0.00300
C645        C  0.31726460  0.93075337  0.38188706    -0.12000
C646        C  0.32202864  0.90980111  0.36116913     0.01900
H647        H  0.34046201  0.88137027  0.45998427     0.14900
H648        H  0.31095671  0.94405893  0.35873613     0.14900
C649        C  0.31706155  0.90709693  0.31098389     0.36500
C650        C  0.33406418  0.91853637  0.50876909     0.36400
N651        N  0.31305417  0.90504084  0.27080285    -0.43800
N652        N  0.33801915  0.92015865  0.54903527    -0.43800
C653        C  0.31430652  0.88952796  0.03506592    -0.00200
C654        C  0.30878171  0.89218478  0.98664464    -0.12100
C655        C  0.31412920  0.91274224  0.96396527     0.02000
C656        C  0.32373698  0.93141928  0.99075789    -0.00300
C657        C  0.33522444  0.92667831  0.03544524    -0.12000
C658        C  0.33007046  0.90622749  0.05796278     0.01900
H659        H  0.29806317  0.87901321  0.96761702     0.14900
H660        H  0.34563204  0.93943568  0.05573823     0.14900
C661        C  0.34007965  0.90323152  0.10563769     0.36500
C662        C  0.30515416  0.91531246  0.91565078     0.36400
N663        N  0.34811635  0.90079863  0.14378608    -0.43800
N664        N  0.29800446  0.91740173  0.87688539    -0.43800
C665        C  0.24425497  0.03644098  0.09692656    -0.00200
C666        C  0.22994957  0.02146476  0.06871007    -0.12100
C667        C  0.20153789  0.02276591  0.06454523     0.02000
C668        C  0.18588144  0.03612949  0.09622306    -0.00300
C669        C  0.20039365  0.05013051  0.12790593    -0.12000
C670        C  0.22938096  0.05081976  0.12773668     0.01900
H671        H  0.24130809  0.01009845  0.04575087     0.14900
H672        H  0.18917941  0.06138920  0.15141178     0.14900
C673        C  0.24292464  0.06687518  0.15813906     0.36500
C674        C  0.19204203  0.01509419  0.01982134     0.36400
N675        N  0.25364437  0.07980478  0.18254912    -0.43800
N676        N  0.18841223  0.01068638  0.98054126    -0.43800
C677        C  0.18269202  0.08857662  0.95599068    -0.00200
C678        C  0.19865494  0.08967815  0.99735638    -0.12100
C679        C  0.22769676  0.09198739  0.99462946     0.02000
C680        C  0.24127276  0.09227532  0.95010276    -0.00300
C681        C  0.22522848  0.09275086  0.90885469    -0.12000
C682        C  0.19610510  0.09126184  0.91156714     0.01900
H683        H  0.18844088  0.08873338  0.03172587     0.14900
H684        H  0.23550079  0.09333762  0.87450212     0.14900
C685        C  0.18041592  0.09177790  0.86827357     0.36500
C686        C  0.24348973  0.09374682  0.03761086     0.36400
N687        N  0.16775726  0.09223954  0.83365337    -0.43800
N688        N  0.25674336  0.09564221  0.07134617    -0.43800
C689        C  0.09458900  0.16550538  0.91354200    -0.00200
C690        C  0.10226814  0.16298721  0.96097167    -0.12100
C691        C  0.09932591  0.14219036  0.98347703     0.02000
C692        C  0.08994079  0.12331487  0.95714431    -0.00300
C693        C  0.07576193  0.12775397  0.91467258    -0.12000
C694        C  0.07847904  0.14854304  0.89240047     0.01900
H695        H  0.11318387  0.17643210  0.97879513     0.14900
H696        H  0.06492658  0.11473732  0.89581783     0.14900
C697        C  0.06569329  0.15173213  0.84681458     0.36500
C698        C  0.11056532  0.13989954  0.03041883     0.36400
N699        N  0.05528137  0.15435578  0.81047425    -0.43800
N700        N  0.62015892  0.13825186  0.06775713    -0.43800
C701        C  0.48991671  0.03567410  0.35901753    -0.00200
C702        C  0.47867759  0.04327760  0.31603389    -0.12100
C703        C  0.45020240  0.04197816  0.30731462     0.02000
C704        C  0.43254836  0.03112488  0.34064243    -0.00300
C705        C  0.44436764  0.02265740  0.38132226    -0.12000
C706        C  0.47113307  0.02799195  0.39383248     0.01900
H707        H  0.49171212  0.05139800  0.28984240     0.14900
H708        H  0.43184983  0.01374202  0.40628838     0.14900
C709        C  0.47455636  0.03141724  0.44370802     0.36500
C710        C  0.44037911  0.05295750  0.26526486     0.36400
N711        N  0.47482163  0.03491710  0.48402405    -0.43800
N712        N  0.43286838  0.06177479  0.23130697    -0.43800
C713        C  0.08516074  0.03509984  0.28978456    -0.00200
C714        C  0.07888484  0.05451846  0.26346459    -0.12100
C715        C  0.08541649  0.05656622  0.21492614     0.02000
C716        C  0.09913566  0.03885775  0.19081773    -0.00300
C717        C  0.10746887  0.02040037  0.21848827    -0.12000
C718        C  0.10190741  0.01881074  0.26709442     0.01900
H719        H  0.06714965  0.06781511  0.28061014     0.14900
H720        H  0.11981703  0.00727124  0.20200634     0.14900
C721        C  0.11617791  0.00136727  0.29199371     0.36500
C722        C  0.07757932  0.07715393  0.19257216     0.36400
N723        N  0.12829928  0.98735783  0.31088430    -0.43800
N724        N  0.07087871  0.09402489  0.17638760    -0.43800
C725        C  0.49032077  0.08634522  0.49732706    -0.00200
C726        C  0.47862205  0.08495050  0.45210771    -0.12100
C727        C  0.44976826  0.08481827  0.44670778     0.02000
C728        C  0.43231585  0.08567940  0.48701006    -0.00300
C729        C  0.44401552  0.08765326  0.53219410    -0.12000
C730        C  0.47290137  0.08823934  0.53750388     0.01900
H731        H  0.49205521  0.08369988  0.42111065     0.14900
H732        H  0.43057788  0.08879264  0.56318930     0.14900
C733        C  0.48440377  0.09116769  0.58412365     0.36500
C734        C  0.43838543  0.08458355  0.39961485     0.36400
N735        N  0.49403516  0.09397952  0.62107521    -0.43800
N736        N  0.42893286  0.08482718  0.36209445    -0.43800
C737        C  0.07415371  0.16141465  0.55139669    -0.00200
C738        C  0.08850382  0.14591032  0.57911021    -0.12100
C739        C  0.09497715  0.12465131  0.56126250     0.02000
C740        C  0.08463012  0.11803852  0.51661654    -0.00300
C741        C  0.07748441  0.13537084  0.48508694    -0.12000
C742        C  0.07115990  0.15685121  0.50257302     0.01900
H743        H  0.09387690  0.15015412  0.61531582     0.14900
H744        H  0.07128689  0.13109567  0.44930219     0.14900
C745        C  0.05834752  0.17266045  0.47117892     0.36500
C746        C  0.11330917  0.11075038  0.58828645     0.36400
N747        N  0.04803265  0.18528180  0.44591746    -0.43800
N748        N  0.12829930  0.09981440  0.61000656    -0.43800
C749        C  0.17446591  0.96353164  0.99631429    -0.00200
C750        C  0.19048845  0.96243977  0.03743050    -0.12100
C751        C  0.21949047  0.96408703  0.03471924     0.02000
C752        C  0.23271962  0.96748240  0.99045895    -0.00300
C753        C  0.21682686  0.96702726  0.94902093    -0.12000
C754        C  0.18785131  0.96462480  0.95167603     0.01900
H755        H  0.18026752  0.96124034  0.07175220     0.14900
H756        H  0.22703502  0.96855477  0.91473745     0.14900
C757        C  0.17200430  0.96384554  0.90861681     0.36500
C758        C  0.23526951  0.96296550  0.07786208     0.36400
N759        N  0.15884766  0.96280744  0.87461090    -0.43800
N760        N  0.24805771  0.96201937  0.11228709    -0.43800
C761        C  0.22980603  0.02092451  0.84992434    -0.00200
C762        C  0.21549072  0.00743894  0.81698921    -0.12100
C763        C  0.18649480  0.00605434  0.81770335     0.02000
C764        C  0.17127116  0.01928017  0.85038670    -0.00300
C765        C  0.18536686  0.03401030  0.87953933    -0.12000
C766        C  0.21386711  0.03326444  0.88310987     0.01900
H767        H  0.22691350  0.99701732  0.79206515     0.14900
H768        H  0.17389660  0.04489687  0.90327167     0.14900
C769        C  0.22342450  0.04086686  0.92791136     0.36500
C770        C  0.17333051  0.99055086  0.78560008     0.36400
N771        N  0.22701638  0.04532412  0.96719763    -0.43800
N772        N  0.16274744  0.97819660  0.75972828    -0.43800
C773        C  0.42249035  0.95977884  0.44063985    -0.00200
C774        C  0.44008979  0.96769315  0.40436888    -0.12100
C775        C  0.46902558  0.96887900  0.41095824     0.02000
C776        C  0.48057676  0.96259951  0.45475332    -0.00300
C777        C  0.46339477  0.95190128  0.48821462    -0.12000
C778        C  0.43457969  0.95024673  0.48133616     0.01900
H779        H  0.43111485  0.97404038  0.37203294     0.14900
H780        H  0.47234850  0.94569902  0.52070762     0.14900
C781        C  0.41758292  0.94094059  0.51875432     0.36500
C782        C  0.48647546  0.97615303  0.37215239     0.36400
N783        N  0.40396608  0.93349356  0.54878570    -0.43800
N784        N  0.50039410  0.98168495  0.34066154    -0.43800
C785        C  0.48130032  0.02069443  0.61142406    -0.00200
C786        C  0.46954667  0.00550879  0.58085096    -0.12100
C787        C  0.44195085  0.00711235  0.57007971     0.02000
C788        C  0.42418573  0.02145125  0.59510959    -0.00300
C789        C  0.43547317  0.03488998  0.63129490    -0.12000
C790        C  0.46421746  0.03499544  0.63897050     0.01900
H791        H  0.48277444  0.99423094  0.56036976     0.14900
H792        H  0.42213363  0.04588272  0.65198271     0.14900
C793        C  0.47542246  0.04969413  0.67466877     0.36500
C794        C  0.43664268  0.00049847  0.52367585     0.36400
N795        N  0.48418979  0.06132588  0.70382489    -0.43800
N796        N  0.43747245  0.99829249  0.48350723    -0.43800
C797        C  0.07647227  0.01453290  0.79205454    -0.00200
C798        C  0.06863364  0.03422638  0.76920391    -0.12100
C799        C  0.06513430  0.03510291  0.72052858     0.02000
C800        C  0.06870510  0.01561008  0.69171234    -0.00300
C801        C  0.07492380  0.99546090  0.71452580    -0.12000
C802        C  0.07876592  0.99472604  0.76387039     0.01900
H803        H  0.06668350  0.04979998  0.78824658     0.14900
H804        H  0.07610161  0.98007511  0.69426072     0.14900
C805        C  0.08657055  0.97354474  0.78407108     0.36500
C806        C  0.05612875  0.05642928  0.70210344     0.36400
N807        N  0.59237477  0.95644567  0.80009969    -0.43800
N808        N  0.04890390  0.07354530  0.68784941    -0.43800
C809        C  0.06270763  0.88605688  0.42349854    -0.00200
C810        C  0.08114541  0.90108646  0.40180640    -0.12100
C811        C  0.08748613  0.92156421  0.42337602     0.02000
C812        C  0.07299421  0.92810287  0.46512064    -0.00300
C813        C  0.06125289  0.91063712  0.49250252    -0.12000
C814        C  0.05510863  0.88985694  0.47130601     0.01900
H815        H  0.08983641  0.89717046  0.36711750     0.14900
H816        H  0.05171677  0.91462182  0.52649691     0.14900
C817        C  0.03802210  0.87413437  0.49703407     0.36500
C818        C  0.10968402  0.93464012  0.40302329     0.36400
N819        N  0.02431945  0.86148487  0.51755637    -0.43800
N820        N  0.12772444  0.94480191  0.38635031    -0.43800
C821        C  0.08890195  0.89042101  0.05592855    -0.00200
C822        C  0.07486108  0.90639457  0.08373882    -0.12100
C823        C  0.06903963  0.92759845  0.06576225     0.02000
C824        C  0.07951542  0.93355306  0.02061159    -0.00300
C825        C  0.08619483  0.91578477  0.98917359    -0.12000
C826        C  0.09207772  0.89441213  0.00692357     0.01900
H827        H  0.06938922  0.90260159  0.12022244     0.14900
H828        H  0.09246221  0.91959121  0.95306132     0.14900
C829        C  0.10468774  0.87812906  0.97552895     0.36500
C830        C  0.05146587  0.94219591  0.09352615     0.36400
N831        N  0.11485019  0.86514575  0.95024986    -0.43800
N832        N  0.03707142  0.95364431  0.11600148    -0.43800
C833        C  0.30691797  0.51421061  0.20415367    -0.00200
C834        C  0.32208307  0.49649827  0.22329421    -0.12100
C835        C  0.32992945  0.49667949  0.27106931     0.02000
C836        C  0.32333075  0.51523177  0.30102471    -0.00300
C837        C  0.30600550  0.53182365  0.28283027    -0.12000
C838        C  0.29813289  0.53168459  0.23544494     0.01900
H839        H  0.32780343  0.48230785  0.20146481     0.14900
H840        H  0.29899541  0.54562126  0.30445963     0.14900
C841        C  0.28039373  0.54980234  0.22048149     0.36500
C842        C  0.34614457  0.47803055  0.28757130     0.36400
N843        N  0.26604333  0.56423074  0.20888394    -0.43800
N844        N  0.35912161  0.46303773  0.30051640    -0.43800
C845        C  0.32417726  0.38796444  0.92152443    -0.00200
C846        C  0.31555490  0.38962709  0.96907146    -0.12100
C847        C  0.31870621  0.40985392  0.99422395     0.02000
C848        C  0.32908264  0.42909011  0.97038056    -0.00300
C849        C  0.34416566  0.42525677  0.92800725    -0.12000
C850        C  0.34123351  0.40508319  0.90301160     0.01900
H851        H  0.30393723  0.37602587  0.98503487     0.14900
H852        H  0.35581025  0.43849089  0.91122893     0.14900
C853        C  0.35486323  0.40277964  0.85740202     0.36500
C854        C  0.30662019  0.41145097  0.04114217     0.36400
N855        N  0.36593583  0.40093132  0.82099463    -0.43800
N856        N  0.29697745  0.41264202  0.07881262    -0.43800
C857        C  0.34455821  0.39144920  0.55991190    -0.00200
C858        C  0.34484022  0.39524869  0.51099275    -0.12100
C859        C  0.33864234  0.41657458  0.49337829     0.02000
C860        C  0.33348606  0.43455429  0.52567590    -0.00300
C861        C  0.32623387  0.42884990  0.57255582    -0.12000
C862        C  0.33235521  0.40763451  0.59007624     0.01900
H863        H  0.35270003  0.38242636  0.48709601     0.14900
H864        H  0.31926898  0.44136920  0.59761996     0.14900
C865        C  0.32778423  0.40340118  0.63995542     0.36500
C866        C  0.34311601  0.42040117  0.44337375     0.36400
N867        N  0.32418570  0.39997208  0.67988697    -0.43800
N868        N  0.34676181  0.42347347  0.40331315    -0.43800
C869        C  0.33376381  0.66538979  0.42238527    -0.00200
C870        C  0.33890999  0.66383565  0.47118827    -0.12100
C871        C  0.33398970  0.64361519  0.49527801     0.02000
C872        C  0.32558375  0.62439070  0.46929316    -0.00300
C873        C  0.31317632  0.62826391  0.42506230    -0.12000
C874        C  0.31817854  0.64820880  0.40075109     0.01900
H875        H  0.34911084  0.67752406  0.48939426     0.14900
H876        H  0.30255429  0.61509241  0.40631270     0.14900
C877        C  0.30854449  0.64999987  0.35257691     0.36500
C878        C  0.34211615  0.64199867  0.54422840     0.36400
N879        N  0.30087398  0.65132622  0.31395050    -0.43800
N880        N  0.34841233  0.64073307  0.58360648    -0.43800
C881        C  0.32053885  0.61627957  0.03015431    -0.00200
C882        C  0.32839407  0.62162542  0.07682540    -0.12100
C883        C  0.32404990  0.64309971  0.09512942     0.02000
C884        C  0.31260774  0.65979587  0.06615435    -0.00300
C885        C  0.31138493  0.65598798  0.01722953    -0.12000
C886        C  0.31604027  0.63446461  0.99875056     0.01900
H887        H  0.33494343  0.60888972  0.10115075     0.14900
H888        H  0.30426225  0.66915846  0.99407512     0.14900
C889        C  0.31202424  0.63104863  0.94859690     0.36500
C890        C  0.32981888  0.64719438  0.14462140     0.36400
N891        N  0.30908788  0.62842613  0.90827873    -0.43800
N892        N  0.33439018  0.65055342  0.18422677    -0.43800
C893        C  0.33461036  0.53465910  0.80043040    -0.00200
C894        C  0.33629159  0.55574998  0.77820145    -0.12100
C895        C  0.34027584  0.55784657  0.72881119     0.02000
C896        C  0.34185782  0.53855823  0.69943003    -0.00300
C897        C  0.34231435  0.51772386  0.72248054    -0.12000
C898        C  0.33797033  0.51547702  0.77094662     0.01900
H899        H  0.33288030  0.57079601  0.79893438     0.14900
H900        H  0.34683671  0.50254309  0.70293324     0.14900
C901        C  0.33486383  0.49276880  0.78756315     0.36500
C902        C  0.34309108  0.58007228  0.70980860     0.36400
N903        N  0.33232165  0.47447410  0.80008609    -0.43800
N904        N  0.34534957  0.59797013  0.69486406    -0.43800
C905        C  0.17709507  0.47000004  0.95235566    -0.00200
C906        C  0.18892763  0.44891757  0.96293356    -0.12100
C907        C  0.21770646  0.44601024  0.96744021     0.02000
C908        C  0.23570029  0.46432859  0.95950454    -0.00300
C909        C  0.22387373  0.48461621  0.94725664    -0.12000
C910        C  0.19563509  0.48831376  0.94844563     0.01900
H911        H  0.17580168  0.43465482  0.97034463     0.14900
H912        H  0.23679899  0.49847669  0.93786496     0.14900
C913        C  0.18884731  0.51163484  0.95240924     0.36500
C914        C  0.22750962  0.42455676  0.98337329     0.36400
N915        N  0.18677631  0.53073971  0.95783002    -0.43800
N916        N  0.23525562  0.40734037  0.99624204    -0.43800
C917        C  0.08558618  0.43422989  0.92192514    -0.00200
C918        C  0.07638836  0.42893539  0.87595585    -0.12100
C919        C  0.08164119  0.40783619  0.85630494     0.02000
C920        C  0.09446800  0.39126294  0.88387464    -0.00300
C921        C  0.09653140  0.39470934  0.93284698    -0.12000
C922        C  0.09173569  0.41601886  0.95235632     0.01900
H923        H  0.06811542  0.44155819  0.85295671     0.14900
H924        H  0.10491472  0.38161442  0.95492512     0.14900
C925        C  0.09831381  0.41948460  0.00168548     0.36500
C926        C  0.07564930  0.40418275  0.80675115     0.36400
N927        N  0.10372559  0.42226561  0.04116070    -0.43800
N928        N  0.07098980  0.40130581  0.76701185    -0.43800
C929        C  0.16464606  0.51958443  0.09737659    -0.00200
C930        C  0.17930598  0.50249842  0.07388835    -0.12100
C931        C  0.20735504  0.49913446  0.08322433     0.02000
C932        C  0.22157138  0.51449722  0.11165478    -0.00300
C933        C  0.20680025  0.53059541  0.13755560    -0.12000
C934        C  0.17814818  0.53236705  0.13272268     0.01900
H935        H  0.16843148  0.49095545  0.05080890     0.14900
H936        H  0.21759509  0.54143939  0.16221287     0.14900
C937        C  0.16334103  0.54652326  0.16595098     0.36500
C938        C  0.22011869  0.47804698  0.07162102     0.36400
N939        N  0.15163224  0.55753772  0.19343662    -0.43800
N940        N  0.23078553  0.46090220  0.06640644    -0.43800
C941        C  0.42611055  0.46606264  0.49827087    -0.00200
C942        C  0.44379965  0.46328247  0.53699769    -0.12100
C943        C  0.47251610  0.46068669  0.53001921     0.02000
C944        C  0.48373311  0.46051904  0.48357181    -0.00300
C945        C  0.46575502  0.46134818  0.44478288    -0.12000
C946        C  0.43708845  0.46413682  0.45188045     0.01900
H947        H  0.43529641  0.46404188  0.57271293     0.14900
H948        H  0.47426329  0.46094781  0.40903817     0.14900
C949        C  0.41924023  0.46489381  0.41123156     0.36500
C950        C  0.49029195  0.46021202  0.57088515     0.36400
N951        N  0.40469063  0.46520200  0.37889361    -0.43800
N952        N  0.00449065  0.45985565  0.60347972    -0.43800
C953        C  0.07804350  0.42778902  0.47124366    -0.00200
C954        C  0.06631677  0.40955113  0.44633721    -0.12100
C955        C  0.06210193  0.38903805  0.46947459     0.02000
C956        C  0.07222958  0.38625698  0.51589326    -0.00300
C957        C  0.09098788  0.40219259  0.53351248    -0.12000
C958        C  0.09508136  0.42250346  0.50991650     0.01900
H959        H  0.05506274  0.41271579  0.41394508     0.14900
H960        H  0.10157882  0.39915651  0.56659015     0.14900
C961        C  0.11745070  0.43692552  0.52441511     0.36500
C962        C  0.04408771  0.37268102  0.44785084     0.36400
N963        N  0.13563060  0.44837393  0.53570674    -0.43800
N964        N  0.02954885  0.35961749  0.43059798    -0.43800
C965        C  0.41837493  0.52087128  0.36187337    -0.00200
C966        C  0.42830454  0.50685402  0.32497581    -0.12100
C967        C  0.45670395  0.50463550  0.31588805     0.02000
C968        C  0.47542808  0.51815499  0.34112942    -0.00300
C969        C  0.46538253  0.53330863  0.37437966    -0.12000
C970        C  0.43794722  0.53293156  0.38855008     0.01900
H971        H  0.41406450  0.49649685  0.30502285     0.14900
H972        H  0.47961290  0.54410774  0.39296293     0.14900
C973        C  0.43368713  0.54059821  0.43593533     0.36500
C974        C  0.46588605  0.48782033  0.28238012     0.36400
N975        N  0.43428074  0.54519091  0.47568952    -0.43800
N976        N  0.97309876  0.47450575  0.25507691    -0.43800
C977        C  0.06172963  0.51518240  0.24953410    -0.00200
C978        C  0.06342147  0.53610859  0.22713671    -0.12100
C979        C  0.06725403  0.53829080  0.17860957     0.02000
C980        C  0.06825956  0.51904864  0.14873847    -0.00300
C981        C  0.06413620  0.49807225  0.17037282    -0.12000
C982        C  0.06060322  0.49602116  0.21973222     0.01900
H983        H  0.06095165  0.55145227  0.24708094     0.14900
H984        H  0.06545652  0.48295507  0.14921032     0.14900
C985        C  0.05511601  0.47403132  0.23839891     0.36500
C986        C  0.07271237  0.56079198  0.16235449     0.36400
N987        N  0.55083015  0.45635221  0.25354948    -0.43800
N988        N  0.07719984  0.57890593  0.15019590    -0.43800
C989        C  0.17175978  0.58584242  0.98675452    -0.00200
C990        C  0.19040859  0.59114326  0.95047658    -0.12100
C991        C  0.21889172  0.59013558  0.95815657     0.02000
C992        C  0.22875158  0.58293034  0.00234523    -0.00300
C993        C  0.20998479  0.57873438  0.03962988    -0.12000
C994        C  0.18144113  0.58089196  0.03220633     0.01900
H995        H  0.18258121  0.59658353  0.91671864     0.14900
H996        H  0.21762965  0.57449599  0.07446373     0.14900
C997        C  0.16214515  0.58036979  0.07153003     0.36500
C998        C  0.23757905  0.59737026  0.92099348     0.36400
N999        N  0.14545088  0.58121049  0.10121655    -0.43800
N1000       N  0.25248444  0.60343373  0.89131370    -0.43800
C1001       C  0.08080367  0.62316332  0.97714062    -0.00200
C1002       C  0.09345590  0.64104022  0.95234200    -0.12100
C1003       C  0.09949369  0.66128053  0.97592014     0.02000
C1004       C  0.09029218  0.66451184  0.02320761    -0.00300
C1005       C  0.07129992  0.64908984  0.04219704    -0.12000
C1006       C  0.06542679  0.62900404  0.01848232     0.01900
H1007       H  0.10382297  0.63758481  0.91878382     0.14900
H1008       H  0.06161642  0.65244053  0.07638499     0.14900
C1009       C  0.04291393  0.61550322  0.03649418     0.36500
C1010       C  0.11822285  0.67681670  0.95319998     0.36400
N1011       N  0.02478543  0.60484052  0.05137775    -0.43800
N1012       N  0.13340900  0.68908392  0.93477029    -0.43800
C1013       C  0.18291321  0.53340820  0.83724892    -0.00200
C1014       C  0.19515251  0.51217396  0.83752010    -0.12100
C1015       C  0.22368902  0.50996540  0.84484152     0.02000
C1016       C  0.23953039  0.52908190  0.85556405    -0.00300
C1017       C  0.22763293  0.55028148  0.85124296    -0.12000
C1018       C  0.19950461  0.55259158  0.84120817     0.01900
H1019       H  0.18242396  0.49742437  0.83214339     0.14900
H1020       H  0.24065705  0.56491088  0.85408516     0.14900
C1021       C  0.18824360  0.57452778  0.83267731     0.36500
C1022       C  0.23632168  0.48816560  0.84054657     0.36400
N1023       N  0.17905293  0.59196463  0.82481704    -0.43800
N1024       N  0.24640885  0.47067622  0.83724778    -0.43800
C1025       C  0.48562901  0.53191001  0.58737672    -0.00200
C1026       C  0.47599192  0.54678610  0.62294256    -0.12100
C1027       C  0.44757437  0.54951495  0.63174416     0.02000
C1028       C  0.42861211  0.53559186  0.60801007    -0.00300
C1029       C  0.43844653  0.51964027  0.57619540    -0.12000
C1030       C  0.46588342  0.51957234  0.56185843     0.01900
H1031       H  0.49051098  0.55731101  0.64191162     0.14900
H1032       H  0.42405957  0.50864826  0.55847605     0.14900
C1033       C  0.47006421  0.51181760  0.51458409     0.36500
C1034       C  0.43854227  0.56728555  0.66304397     0.36400
N1035       N  0.96969593  0.50749383  0.47479032    -0.43800
N1036       N  0.43124054  0.58157686  0.68798868    -0.43800
C1037       C  0.09689153  0.53627790  0.74603243    -0.00200
C1038       C  0.08272781  0.55447891  0.72661891    -0.12100
C1039       C  0.07464752  0.55438299  0.67890773     0.02000
C1040       C  0.08042674  0.53562319  0.64899622    -0.00300
C1041       C  0.09645097  0.51831087  0.66772358    -0.12000
C1042       C  0.10421440  0.51824407  0.71517143     0.01900
H1043       H  0.07787932  0.56894655  0.74823632     0.14900
H1044       H  0.10221643  0.50397674  0.64663920     0.14900
C1045       C  0.11998776  0.49911737  0.73084493     0.36500
C1046       C  0.05893456  0.57334019  0.66251947     0.36400
N1047       N  0.13257240  0.48377791  0.74314179    -0.43800
N1048       N  0.04629363  0.58853269  0.64962599    -0.43800
C1049       C  0.47860270  0.58748893  0.45008630    -0.00200
C1050       C  0.46110753  0.58921170  0.41076101    -0.12100
C1051       C  0.43218824  0.59138127  0.41681135     0.02000
C1052       C  0.42044299  0.59220783  0.46294364    -0.00300
C1053       C  0.43819536  0.59226524  0.50214963    -0.12000
C1054       C  0.46704989  0.58991124  0.49598436     0.01900
H1055       H  0.46993014  0.58790448  0.37533581     0.14900
H1056       H  0.42939399  0.59311343  0.53765344     0.14900
C1057       C  0.48455259  0.59007755  0.53713686     0.36500
C1058       C  0.41483190  0.59063993  0.37542023     0.36400
N1059       N  0.99876833  0.59032441  0.57003003    -0.43800
N1060       N  0.40096580  0.58979817  0.34220089    -0.43800
C1061       C  0.06344640  0.66132740  0.39412011    -0.00200
C1062       C  0.07703095  0.64574124  0.36479202    -0.12100
C1063       C  0.08330919  0.62437432  0.38129972     0.02000
C1064       C  0.07334270  0.61769819  0.42647964    -0.00300
C1065       C  0.06694820  0.63502957  0.45913696    -0.12000
C1066       C  0.06129312  0.65675176  0.44301582     0.01900
H1067       H  0.08190651  0.65001509  0.32830845     0.14900
H1068       H  0.06118844  0.63077437  0.49524600     0.14900
C1069       C  0.05038127  0.67301647  0.47619020     0.36500
C1070       C  0.10108938  0.61056809  0.35205275     0.36400
N1071       N  0.04176908  0.68609144  0.50288269    -0.43800
N1072       N  0.61553267  0.59993563  0.32787435    -0.43800
C1073       C  0.55723135  0.59575668  0.43360161     0.86400
C1074       C  0.56252234  0.58350016  0.48089024    -0.53800
C1075       C  0.54565358  0.56523400  0.48842220     0.09400
C1076       C  0.52436125  0.56182393  0.44816342     0.20300
C1077       C  0.55973164  0.57694328  0.39580323    -0.54500
C1078       C  0.54270903  0.55889752  0.40322742     0.09500
C1079       C  0.52612177  0.60151257  0.43443641    -0.54100
C1080       C  0.50903451  0.58415601  0.44280341     0.10000
H1081       H  0.57892706  0.58843442  0.50481737     0.14500
H1082       H  0.50884939  0.54882652  0.45375226     0.00300
H1083       H  0.57392880  0.57725261  0.36641175     0.14800
H1084       H  0.51810782  0.61834602  0.43004479     0.14600
C1085       C  0.56440710  0.53201366  0.60276335     0.86400
C1086       C  0.56921455  0.51021419  0.57331932    -0.53800
C1087       C  0.55144502  0.50743667  0.53615242     0.09400
C1088       C  0.53111354  0.52737511  0.53178354     0.20300
C1089       C  0.56677028  0.55095726  0.56566724    -0.54500
C1090       C  0.54891261  0.54872373  0.52828913     0.09500
C1091       C  0.53369698  0.53094726  0.61638969    -0.54100
C1092       C  0.51603230  0.52938528  0.57966199     0.10000
H1093       H  0.58489202  0.49790989  0.58060025     0.14500
H1094       H  0.51702036  0.52577833  0.50299455     0.00300
H1095       H  0.58081949  0.56499636  0.56966648     0.14800
H1096       H  0.52642459  0.53196874  0.65295252     0.14600
C1097       C  0.60796731  0.53692479  0.79665203     0.86400
C1098       C  0.60056560  0.51560040  0.82533214    -0.53800
C1099       C  0.61423047  0.51366838  0.86749270     0.09400
C1100       C  0.63330951  0.53373761  0.87659492     0.20300
C1101       C  0.60094003  0.55637558  0.83224531    -0.54500
C1102       C  0.61435242  0.55456633  0.87515675     0.09500
C1103       C  0.63961390  0.53738796  0.79246807    -0.54100
C1104       C  0.65259675  0.53523810  0.83386778     0.10000
H1105       H  0.58607265  0.50317343  0.81237420     0.14500
H1106       H  0.64607695  0.53211127  0.90709218     0.00300
H1107       H  0.58643116  0.56971817  0.82520616     0.14800
H1108       H  0.65097184  0.53863032  0.75906520     0.14600
C1109       C  0.59510169  0.60016640  0.97165386     0.86400
C1110       C  0.59436719  0.58857264  0.92190503    -0.53800
C1111       C  0.61070532  0.56962330  0.91832490     0.09400
C1112       C  0.62596808  0.56465251  0.96503788     0.20300
C1113       C  0.58730957  0.58122643  0.00702768    -0.54500
C1114       C  0.60366340  0.56258295  0.00384423     0.09500
C1115       C  0.62613827  0.60406378  0.98112534    -0.54100
C1116       C  0.64193050  0.58573391  0.97686022     0.10000
H1117       H  0.58228642  0.59493463  0.89270457     0.14500
H1118       H  0.64023389  0.55083611  0.96450844     0.00300
H1119       H  0.57177931  0.58253681  0.03434618     0.14800
H1120       H  0.63504730  0.62001766  0.99167675     0.14600
O1121       O  0.60755251  0.70837934  0.20515010    -0.57900
C1122       C  0.68283543  0.70867262  0.12761582     0.74800
O1123       O  0.60759492  0.70180482  0.04130825    -0.59000
C1124       C  0.58203191  0.71250500  0.19880507     0.74700
C1125       C  0.62197260  0.76358792  0.11833739     0.77100
Cd1126     Cd  0.62262274  0.71535797  0.12196709     1.37500
O1127       O  0.66698350  0.70294443  0.16161152    -0.57900
O1128       O  0.62990276  0.75236306  0.15335783    -0.56700
C1129       C  0.60143001  0.68225164  0.05514180     0.77100
O1130       O  0.61374716  0.75260492  0.08248631    -0.59100
O1131       O  0.67090694  0.71545421  0.09065894    -0.57500
O1132       O  0.57495805  0.71693145  0.15680922    -0.57500
O1133       O  0.60554581  0.67824116  0.09854192    -0.56700
O1134       O  0.53581958  0.71198039  0.23259795    -0.57900
C1135       C  0.96311196  0.70941975  0.32406385     0.74800
O1136       O  0.54648431  0.69955597  0.39043853    -0.59000
C1137       C  0.56189898  0.71299887  0.23860634     0.74700
C1138       C  0.52732611  0.76361569  0.33179973     0.77100
Cd1139     Cd  0.52372369  0.71595697  0.31893671     1.37500
O1140       O  0.97654154  0.70541649  0.28603721    -0.57900
O1141       O  0.52062118  0.75407789  0.29358156    -0.56700
C1142       C  0.54945682  0.68046517  0.37116191     0.77100
O1143       O  0.53331173  0.75106311  0.36632382    -0.59100
O1144       O  0.47761591  0.71475132  0.35975479    -0.57500
O1145       O  0.57000282  0.71510697  0.28089217    -0.57500
O1146       O  0.53940591  0.67805328  0.33016509    -0.56700
C1147       C  0.55083107  0.51506351  0.30062491     0.86400
C1148       C  0.55751772  0.53631759  0.33037326    -0.53800
C1149       C  0.54273125  0.53831429  0.37179241     0.09400
C1150       C  0.52448062  0.51772983  0.38082777     0.20300
C1151       C  0.55785664  0.49571567  0.33520692    -0.54500
C1152       C  0.54373173  0.49698384  0.37792355     0.09500
C1153       C  0.51936837  0.51477939  0.29623546    -0.54100
C1154       C  0.50565928  0.51594463  0.33772691     0.10000
H1155       H  0.57278004  0.54855123  0.31944114     0.14500
H1156       H  0.51220858  0.51947423  0.41290177     0.00300
H1157       H  0.57278354  0.48268712  0.32707497     0.14800
H1158       H  0.50875452  0.51488147  0.26240589     0.14600
C1159       C  0.56205246  0.44997421  0.46915036     0.86400
C1160       C  0.56312765  0.46229152  0.42070583    -0.53800
C1161       C  0.54599501  0.48065238  0.41858154     0.09400
C1162       C  0.52932277  0.48404592  0.46483909     0.20300
C1163       C  0.56808715  0.46874394  0.50657488    -0.54500
C1164       C  0.55078692  0.48694657  0.50404578     0.09500
C1165       C  0.53109769  0.44459232  0.47801186    -0.54100
C1166       C  0.51407211  0.46219778  0.47496929     0.10000
H1167       H  0.57655355  0.45708574  0.39160757     0.14500
H1168       H  0.51489617  0.49719190  0.46398777     0.00300
H1169       H  0.58368843  0.46772215  0.53347589     0.14800
H1170       H  0.52312381  0.42811363  0.48686544     0.14600
C1171       C  0.58570174  0.51977282  0.10341047     0.86400
C1172       C  0.58214694  0.54062585  0.07186303    -0.53800
C1173       C  0.60225806  0.54320382  0.03775945     0.09400
C1174       C  0.62296927  0.52357179  0.03719726     0.20300
C1175       C  0.58498689  0.50031355  0.06666755    -0.54500
C1176       C  0.60448981  0.50251317  0.03075855     0.09500
C1177       C  0.61549449  0.52011831  0.12092314    -0.54100
C1178       C  0.63482299  0.52204658  0.08694681     0.10000
H1179       H  0.56435941  0.55158159  0.07498571     0.14500
H1180       H  0.64049817  0.52559818  0.01321539     0.00300
H1181       H  0.56982670  0.48692420  0.06773588     0.14800
H1182       H  0.62094696  0.51759787  0.15784528     0.14600
C1183       C  0.59904738  0.45708705  0.93115676     0.86400
C1184       C  0.59119911  0.46904255  0.97827664    -0.53800
C1185       C  0.60679836  0.48778425  0.98738151     0.09400
C1186       C  0.62819608  0.49257465  0.94780955     0.20300
C1187       C  0.59624467  0.47547776  0.89291334    -0.54500
C1188       C  0.61189856  0.49413138  0.90108384     0.09500
C1189       C  0.63053512  0.45324568  0.93367981    -0.54100
C1190       C  0.64616004  0.47149840  0.94427706     0.10000
H1191       H  0.57507849  0.46299676  0.00205794     0.14500
H1192       H  0.63992657  0.50716704  0.95438704     0.00300
H1193       H  0.58351327  0.47407990  0.86183861     0.14800
H1194       H  0.63950007  0.43693436  0.92662539     0.14600
O1195       O  0.68447142  0.34852671  0.77775942    -0.57900
C1196       C  0.59935564  0.33980942  0.72990799     0.74800
O1197       O  0.62783792  0.30261446  0.85856808    -0.59000
C1198       C  0.69736674  0.34398122  0.81551233     0.74700
C1199       C  0.60938309  0.37236687  0.86105060     0.77100
Cd1200     Cd  0.63684061  0.33706698  0.80958403     1.37500
O1201       O  0.62548790  0.34000047  0.72316165    -0.57900
O1202       O  0.62215949  0.37520851  0.82212129    -0.56700
C1203       C  0.63236189  0.28956324  0.82376562     0.77100
O1204       O  0.61085593  0.35304756  0.87924118    -0.59100
O1205       O  0.59103961  0.33855840  0.77242551    -0.57500
O1206       O  0.68243656  0.33774497  0.85012935    -0.57500
O1207       O  0.63825621  0.29854788  0.78451618    -0.56700
O1208       O  0.55390970  0.34499194  0.69786042    -0.57900
C1209       C  0.97836215  0.34381365  0.62034955     0.74800
O1210       O  0.55536443  0.34915797  0.53559623    -0.59000
C1211       C  0.57930034  0.34021393  0.69079826     0.74700
C1212       C  0.53996415  0.28878506  0.61302436     0.77100
Cd1213     Cd  0.53878611  0.33689780  0.61573146     1.37500
O1214       O  0.99369011  0.34996352  0.65434145    -0.57900
O1215       O  0.53303143  0.30021583  0.64892810    -0.56700
C1216       C  0.56125583  0.36890344  0.54871317     0.77100
O1217       O  0.54683581  0.29952262  0.57603658    -0.59100
O1218       O  0.49088897  0.33636220  0.58402789    -0.57500
O1219       O  0.58626173  0.33497110  0.64882618    -0.57500
O1220       O  0.55645691  0.37361891  0.59183196    -0.56700
C1221       C  0.81777414  0.53270692  0.84653996     0.86400
C1222       C  0.78783888  0.53031321  0.83037117    -0.53800
C1223       C  0.76927813  0.52773544  0.86535503     0.09400
C1224       C  0.78193885  0.52742622  0.91474207     0.20300
C1225       C  0.81724393  0.55237941  0.88291709    -0.54500
C1226       C  0.79857110  0.54930614  0.91986986     0.09500
C1227       C  0.82361042  0.51226823  0.87847687    -0.54100
C1228       C  0.80426147  0.50886680  0.91358764     0.10000
H1229       H  0.78149002  0.53158459  0.79354603     0.14500
H1230       H  0.76542416  0.52567904  0.94062632     0.00300
H1231       H  0.83123939  0.56653831  0.88086122     0.14800
H1232       H  0.84197845  0.50200851  0.87457641     0.14600
C1233       C  0.80579403  0.59382904  0.02077336     0.86400
C1234       C  0.80828578  0.57494514  0.05816494    -0.53800
C1235       C  0.79158344  0.55674159  0.05008058     0.09400
C1236       C  0.77459918  0.55917512  0.00419615     0.20300
C1237       C  0.81260277  0.58191297  0.97327794    -0.54500
C1238       C  0.79603455  0.56376363  0.96377342     0.09500
C1239       C  0.77459580  0.59880111  0.01924577    -0.54100
C1240       C  0.75858466  0.58087159  0.01041469     0.10000
H1241       H  0.82199686  0.57563260  0.08810626     0.14500
H1242       H  0.75976198  0.54576373  0.99776828     0.00300
H1243       H  0.82918858  0.58736036  0.94980525     0.14800
H1244       H  0.76575875  0.61540915  0.02367366     0.14600
C1245       C  0.84161604  0.60242359  0.47594743     0.86400
C1246       C  0.83545970  0.58299783  0.44043769    -0.53800
C1247       C  0.85310569  0.56518299  0.44355371     0.09400
C1248       C  0.87460824  0.56865670  0.48258358     0.20300
C1249       C  0.84040567  0.59070794  0.52527848    -0.54500
C1250       C  0.85777976  0.57246813  0.52868666     0.09500
C1251       C  0.87255925  0.60790168  0.46720348    -0.54100
C1252       C  0.88981548  0.59043081  0.47122228     0.10000
H1253       H  0.81857349  0.58292620  0.41568764     0.14500
H1254       H  0.88903497  0.55556292  0.48425021     0.00300
H1255       H  0.82654139  0.59595240  0.55372625     0.14800
H1256       H  0.88028743  0.62440230  0.45790805     0.14600
C1257       C  0.85292477  0.53883616  0.64827394     0.86400
C1258       C  0.88442324  0.53964786  0.65275265    -0.53800
C1259       C  0.89823881  0.53810461  0.61133439     0.09400
C1260       C  0.87948534  0.53575178  0.56825027     0.20300
C1261       C  0.84565083  0.55783591  0.61275585    -0.54500
C1262       C  0.85994255  0.55638538  0.57012275     0.09500
C1263       C  0.84671199  0.51722049  0.61924745    -0.54100
C1264       C  0.86156186  0.51500284  0.57800186     0.10000
H1265       H  0.89500083  0.54003501  0.68661424     0.14500
H1266       H  0.89192375  0.53385280  0.53641165     0.00300
H1267       H  0.83046216  0.57075648  0.62008701     0.14800
H1268       H  0.83186552  0.50476290  0.63083627     0.14600
O1269       O  0.78568694  0.71350530  0.22299785    -0.57900
C1270       C  0.71352658  0.70907044  0.13109451     0.74800
O1271       O  0.78461493  0.75060211  0.08959121    -0.59000
C1272       C  0.81177980  0.71345317  0.21588637     0.74700
C1273       C  0.79862849  0.67945471  0.08751739     0.77100
Cd1274     Cd  0.77362776  0.71609938  0.13724895     1.37500
O1275       O  0.72631444  0.70486174  0.16913382    -0.57900
O1276       O  0.78614281  0.67767601  0.12699791    -0.56700
C1277       C  0.77740421  0.76363695  0.12315992     0.77100
O1278       O  0.79797153  0.69849015  0.06779164    -0.59100
O1279       O  0.72843892  0.71510091  0.09626223    -0.57500
O1280       O  0.81992722  0.71438246  0.17321247    -0.57500
O1281       O  0.76916586  0.75460744  0.16117685    -0.56700
O1282       O  0.85735659  0.70875559  0.24804922    -0.57900
C1283       C  0.93227337  0.70950718  0.32678435     0.74800
O1284       O  0.86410243  0.75383109  0.37192243    -0.59000
C1285       C  0.83184911  0.71317183  0.25495913     0.74700
C1286       C  0.84701988  0.68320352  0.39325547     0.77100
Cd1287     Cd  0.87171610  0.71643327  0.33102652     1.37500
O1288       O  0.91704233  0.70442203  0.29193752    -0.57900
O1289       O  0.85163387  0.70281717  0.40871426    -0.56700
C1290       C  0.86989474  0.76464629  0.33448564     0.77100
O1291       O  0.85507470  0.67915584  0.35122221    -0.59100
O1292       O  0.91961239  0.71602714  0.36387035    -0.57500
O1293       O  0.82464777  0.71812521  0.29695341    -0.57500
O1294       O  0.87599574  0.75325790  0.29811120    -0.56700
O1295       O  0.87532481  0.34028582  0.71534336    -0.57900
C1296       C  0.94756248  0.34372938  0.62321513     0.74800
O1297       O  0.87850685  0.30179591  0.58242668    -0.59000
C1298       C  0.84924112  0.34022933  0.70904920     0.74700
C1299       C  0.86011614  0.37253827  0.57987812     0.77100
Cd1300     Cd  0.88716847  0.33710892  0.62919257     1.37500
O1301       O  0.93415584  0.34860802  0.66080648    -0.57900
O1302       O  0.86064622  0.35314346  0.56131541    -0.56700
C1303       C  0.88295061  0.28950214  0.61808931     0.77100
O1304       O  0.87404277  0.37533222  0.61725893    -0.59100
O1305       O  0.93314148  0.33735229  0.58839061    -0.57500
O1306       O  0.84109553  0.33913924  0.66667055    -0.57500
O1307       O  0.88862511  0.29928584  0.65655582    -0.56700
O1308       O  0.80387406  0.34582687  0.74257434    -0.57900
C1309       C  0.72814879  0.34430765  0.81898638     0.74800
O1310       O  0.79577984  0.30074807  0.86572808    -0.59000
C1311       C  0.82910460  0.34057000  0.74860087     0.74700
C1312       C  0.81222036  0.37032601  0.89020299     0.77100
Cd1313     Cd  0.78863706  0.33767606  0.82488660     1.37500
O1314       O  0.74405744  0.34995128  0.78500673    -0.57900
O1315       O  0.80625283  0.37462275  0.84761563    -0.56700
C1316       C  0.78931725  0.28955663  0.82911865     0.77100
O1317       O  0.80638748  0.35075545  0.90431624    -0.59100
O1318       O  0.74010804  0.33760432  0.85599919    -0.57500
O1319       O  0.83586001  0.33480479  0.78997461    -0.57500
O1320       O  0.78333542  0.30054109  0.79258956    -0.56700
C1321       C  0.79616521  0.51345279  0.15320164     0.86400
C1322       C  0.76466043  0.51174142  0.15663916    -0.53800
C1323       C  0.75180318  0.51366628  0.11507932     0.09400
C1324       C  0.77120371  0.51631182  0.07259838     0.20300
C1325       C  0.80458099  0.49452195  0.11724601    -0.54500
C1326       C  0.79137632  0.49602054  0.07408005     0.09500
C1327       C  0.80253187  0.53518736  0.12552475    -0.54100
C1328       C  0.78924478  0.53694535  0.08300944     0.10000
H1329       H  0.75321587  0.50969211  0.18977875     0.14500
H1330       H  0.75811984  0.51836089  0.04189620     0.00300
H1331       H  0.81971989  0.48164964  0.12434091     0.14800
H1332       H  0.81613420  0.54802024  0.13947658     0.14600
C1333       C  0.81373304  0.45150491  0.97711485     0.86400
C1334       C  0.82163162  0.47114645  0.94344544    -0.53800
C1335       C  0.80417220  0.48916136  0.94665153     0.09400
C1336       C  0.78151565  0.48585061  0.98425640     0.20300
C1337       C  0.81319775  0.46252559  0.02751435    -0.54500
C1338       C  0.79609444  0.48094327  0.03113802     0.09500
C1339       C  0.78315879  0.44685877  0.96502125    -0.54100
C1340       C  0.76602759  0.46453198  0.96970076     0.10000
H1341       H  0.83853019  0.47075029  0.91809305     0.14500
H1342       H  0.76797730  0.49979793  0.98691421     0.00300
H1343       H  0.82540899  0.45645206  0.05682646     0.14800
H1344       H  0.77623302  0.43092163  0.95101785     0.14600
C1345       C  0.84820047  0.45695039  0.51719178     0.86400
C1346       C  0.84541636  0.47572037  0.55528571    -0.53800
C1347       C  0.86201116  0.49407224  0.54740364     0.09400
C1348       C  0.88005110  0.49133924  0.50197413     0.20300
C1349       C  0.84188905  0.46927243  0.47045590    -0.54500
C1350       C  0.85850059  0.48757567  0.46227215     0.09500
C1351       C  0.87929691  0.45167039  0.51534701    -0.54100
C1352       C  0.89581711  0.46923040  0.50668641     0.10000
H1353       H  0.83077607  0.47512681  0.58442954     0.14500
H1354       H  0.89533300  0.50447508  0.49614753     0.00300
H1355       H  0.82508336  0.46438245  0.44733782     0.14800
H1356       H  0.88775853  0.43493443  0.51914287     0.14600
C1357       C  0.83939245  0.51946419  0.34674322     0.86400
C1358       C  0.87005940  0.52075789  0.33294202    -0.53800
C1359       C  0.88779383  0.52271572  0.36955305     0.09400
C1360       C  0.87274674  0.52485760  0.41735374     0.20300
C1361       C  0.83730503  0.50079627  0.38441871    -0.54500
C1362       C  0.85512370  0.50352875  0.42168151     0.09500
C1363       C  0.83446929  0.54143188  0.37538833    -0.54100
C1364       C  0.85226077  0.54450394  0.41246310     0.10000
H1365       H  0.87717974  0.51986793  0.29629701     0.14500
H1366       H  0.88676842  0.52681331  0.44603071     0.00300
H1367       H  0.82341533  0.48662121  0.38094614     0.14800
H1368       H  0.81899155  0.55375185  0.36719563     0.14600
O1369       O  0.67264879  0.84690945  0.16808147    -0.57900
C1370       C  0.58648868  0.83866767  0.21352269     0.74800
O1371       O  0.60440917  0.85201692  0.06236462    -0.59000
C1372       C  0.68617178  0.84262971  0.13026044     0.74700
C1373       C  0.62268279  0.78809955  0.12115002     0.77100
Cd1374     Cd  0.62581099  0.83583417  0.13483751     1.37500
O1375       O  0.61246092  0.83986668  0.22047837    -0.57900
O1376       O  0.63177686  0.79744472  0.15812920    -0.56700
C1377       C  0.60199375  0.87139622  0.08050640     0.77100
O1378       O  0.61450899  0.80086219  0.08836296    -0.59100
O1379       O  0.57893083  0.83650382  0.17097317    -0.57500
O1380       O  0.67188073  0.83680426  0.09490911    -0.57500
O1381       O  0.61171006  0.87409123  0.12168097    -0.56700
O1382       O  0.54034496  0.84238023  0.24572675    -0.57900
C1383       C  0.96533645  0.84346820  0.32564224     0.74800
O1384       O  0.53367880  0.79932571  0.37078617    -0.59000
C1385       C  0.56598798  0.83897659  0.25269445     0.74700
C1386       C  0.54962284  0.86854395  0.39353519     0.77100
Cd1387     Cd  0.52561582  0.83608910  0.32946672     1.37500
O1388       O  0.98106074  0.84945555  0.29168880    -0.57900
O1389       O  0.54354341  0.87277889  0.35096925    -0.56700
C1390       C  0.52749684  0.78809742  0.33408653     0.77100
O1391       O  0.54363597  0.84909528  0.40819693    -0.59100
O1392       O  0.47739286  0.83600609  0.36182471    -0.57500
O1393       O  0.57300717  0.83512112  0.29493519    -0.57500
O1394       O  0.52091548  0.79902332  0.29780251    -0.56700
C1395       C  0.55704646  0.01557333  0.64152574     0.86400
C1396       C  0.52600740  0.01816745  0.64969384    -0.53800
C1397       C  0.51151603  0.02125014  0.61047619     0.09400
C1398       C  0.52893723  0.02068064  0.56467149     0.20300
C1399       C  0.55947590  0.99532438  0.60619366    -0.54500
C1400       C  0.54458243  0.99808744  0.56467700     0.09500
C1401       C  0.56648901  0.03568288  0.61111825    -0.54100
C1402       C  0.55103414  0.03910212  0.57151120     0.10000
H1403       H  0.51595219  0.01663711  0.68427382     0.14500
H1404       H  0.51564602  0.02271061  0.53429861     0.00300
H1405       H  0.57199449  0.98068291  0.61292242     0.14800
H1406       H  0.58343265  0.04653583  0.62146566     0.14600
C1407       C  0.55827199  0.95094362  0.46929344     0.86400
C1408       C  0.56564927  0.96958068  0.43311599    -0.53800
C1409       C  0.54937006  0.98830230  0.43595430     0.09400
C1410       C  0.52696434  0.98637787  0.47591478     0.20300
C1411       C  0.55975304  0.96289179  0.51819434    -0.54500
C1412       C  0.54377206  0.98192285  0.52224847     0.09500
C1413       C  0.52728806  0.94667327  0.46094908    -0.54100
C1414       C  0.51087822  0.96470164  0.46444203     0.10000
H1415       H  0.58206749  0.96846625  0.40729745     0.14500
H1416       H  0.51215871  0.00011292  0.47835159     0.00300
H1417       H  0.57315811  0.95707877  0.54618244     0.14800
H1418       H  0.51879492  0.93041444  0.45148120     0.14600
C1419       C  0.59258153  0.01690420  0.83817935     0.86400
C1420       C  0.62299255  0.01589724  0.82297998    -0.53800
C1421       C  0.64110222  0.01741134  0.85852013     0.09400
C1422       C  0.62723348  0.02048257  0.90728268     0.20300
C1423       C  0.58868780  0.99869605  0.87648231    -0.54500
C1424       C  0.60699563  0.00039732  0.91328425     0.09500
C1425       C  0.59023154  0.03922152  0.86697955    -0.54100
C1426       C  0.60922966  0.04152708  0.90261267     0.10000
H1427       H  0.62959675  0.01560001  0.78604095     0.14500
H1428       H  0.64273286  0.02222823  0.93447349     0.00300
H1429       H  0.57269215  0.98596893  0.87476579     0.14800
H1430       H  0.57493876  0.05194294  0.86040185     0.14600
C1431       C  0.59576350  0.95536750  0.01253253     0.86400
C1432       C  0.59436173  0.97469903  0.05001078    -0.53800
C1433       C  0.61192207  0.99226509  0.04066115     0.09400
C1434       C  0.62884609  0.98834285  0.99518076     0.20300
C1435       C  0.59027948  0.96721913  0.96453766    -0.54500
C1436       C  0.60775189  0.98495511  0.95554673     0.09500
C1437       C  0.62684041  0.94912656  0.01111219    -0.54100
C1438       C  0.64396636  0.96618751  0.00111874     0.10000
H1439       H  0.58130002  0.97481994  0.08108318     0.14500
H1440       H  0.64320681  0.00114503  0.98842153     0.00300
H1441       H  0.57397181  0.96204172  0.94063494     0.14800
H1442       H  0.63477325  0.93238891  0.01713078     0.14600
C1443       C  0.56879594  0.09594625  0.50968422     0.86400
C1444       C  0.57090760  0.07720708  0.54772753    -0.53800
C1445       C  0.55356319  0.05936519  0.54023745     0.09400
C1446       C  0.53591393  0.06233517  0.49606117     0.20300
C1447       C  0.57405499  0.08340664  0.46190120    -0.54500
C1448       C  0.55676555  0.06535460  0.45493547     0.09500
C1449       C  0.53759857  0.10180266  0.50977553    -0.54100
C1450       C  0.52073894  0.08434823  0.50176394     0.10000
H1451       H  0.58417581  0.07770312  0.57803785     0.14500
H1452       H  0.52063096  0.04974767  0.49210244     0.00300
H1453       H  0.59006216  0.08831150  0.43671796     0.14800
H1454       H  0.52939455  0.11855551  0.51510572     0.14600
C1455       C  0.56912872  0.03185941  0.33694033     0.86400
C1456       C  0.53818829  0.03401963  0.32595743    -0.53800
C1457       C  0.52073656  0.03380184  0.36404443     0.09400
C1458       C  0.53638773  0.02986942  0.41024107     0.20300
C1459       C  0.57475920  0.05019715  0.37486224    -0.54500
C1460       C  0.55736824  0.04924342  0.41364925     0.09500
C1461       C  0.57026358  0.00935906  0.36456185    -0.54100
C1462       C  0.55304903  0.00837013  0.40358088     0.10000
H1463       H  0.53099980  0.03480668  0.28972145     0.14500
H1464       H  0.52321931  0.02802695  0.43986822     0.00300
H1465       H  0.59054894  0.06297915  0.37044782     0.14800
H1466       H  0.58179279  0.99491731  0.35351033     0.14600
C1467       C  0.60458387  0.10058224  0.96345606     0.86400
C1468       C  0.59741344  0.08144820  0.92806013    -0.53800
C1469       C  0.61348668  0.06264067  0.93189656     0.09400
C1470       C  0.63560183  0.06523046  0.97107822     0.20300
C1471       C  0.60220854  0.08906044  0.01263327    -0.54500
C1472       C  0.61820951  0.07007056  0.01681333     0.09500
C1473       C  0.63569598  0.10471845  0.95539692    -0.54100
C1474       C  0.65193363  0.08668705  0.96007739     0.10000
H1475       H  0.58061194  0.08222205  0.90324290     0.14500
H1476       H  0.65056989  0.05167416  0.97250739     0.00300
H1477       H  0.58836042  0.09500728  0.04047687     0.14800
H1478       H  0.64448554  0.12099494  0.94699749     0.14600
C1479       C  0.60989246  0.03868547  0.13891724     0.86400
C1480       C  0.64159863  0.03828718  0.14129914    -0.53800
C1481       C  0.65499448  0.03527566  0.09937387     0.09400
C1482       C  0.63498895  0.03261347  0.05805257     0.20300
C1483       C  0.60398098  0.05733397  0.10149252    -0.54500
C1484       C  0.61775728  0.05422057  0.05875158     0.09500
C1485       C  0.60180473  0.01676860  0.11309824    -0.54100
C1486       C  0.61513261  0.01316358  0.07081439     0.10000
H1487       H  0.65260282  0.04018928  0.17452275     0.14500
H1488       H  0.64562751  0.03012824  0.02525795     0.00300
H1489       H  0.59080886  0.07160798  0.10721655     0.14800
H1490       H  0.58726465  0.00491491  0.12839224     0.14600
O1491       O  0.61910533  0.20996178  0.74096092    -0.57900
C1492       C  0.69296904  0.21017921  0.82310800     0.74800
O1493       O  0.62546084  0.25447676  0.86458295    -0.59000
C1494       C  0.59350437  0.21416213  0.74749706     0.74700
C1495       C  0.60711343  0.18366771  0.88465880     0.77100
Cd1496     Cd  0.63256268  0.21705897  0.82426402     1.37500
O1497       O  0.67822497  0.20418693  0.78825510    -0.57900
O1498       O  0.61509115  0.17982778  0.84250897    -0.56700
C1499       C  0.63149906  0.26510861  0.82699430     0.77100
O1500       O  0.61170321  0.20319273  0.90067961    -0.59100
O1501       O  0.67984016  0.21748371  0.85903960    -0.57500
O1502       O  0.58591304  0.21894326  0.78940499    -0.57500
O1503       O  0.63731246  0.25359032  0.79066382    -0.56700
O1504       O  0.54762484  0.21319872  0.71488611    -0.57900
C1505       C  0.97521659  0.21057032  0.62782484     0.74800
O1506       O  0.54562734  0.25138715  0.58159973    -0.59000
C1507       C  0.57369749  0.21428893  0.70814850     0.74700
C1508       C  0.56074696  0.18061789  0.57554684     0.77100
Cd1509     Cd  0.53575138  0.21666124  0.62948295     1.37500
O1510       O  0.98875986  0.20660313  0.66517247    -0.57900
O1511       O  0.55103989  0.17835436  0.61711307    -0.56700
C1512       C  0.53951642  0.26430907  0.61594607     0.77100
O1513       O  0.55785771  0.19972203  0.55685224    -0.59100
O1514       O  0.48955920  0.21572734  0.59168552    -0.57500
O1515       O  0.58199255  0.21613710  0.66568736    -0.57500
O1516       O  0.53250997  0.25515441  0.65445559    -0.56700
O1517       O  0.79174631  0.84415876  0.20526784    -0.57900
C1518       C  0.71695241  0.84280320  0.12751902     0.74800
O1519       O  0.79723577  0.85151931  0.04595071    -0.59000
C1520       C  0.81703714  0.83893128  0.19869621     0.74700
C1521       C  0.77806783  0.78813247  0.11997750     0.77100
Cd1522     Cd  0.77728833  0.83634001  0.12297063     1.37500
O1523       O  0.73211740  0.84795189  0.16241917    -0.57900
O1524       O  0.77064828  0.79962198  0.15551420    -0.56700
C1525       C  0.80133442  0.87097896  0.06280478     0.77100
O1526       O  0.78562200  0.79883612  0.08323769    -0.59100
O1527       O  0.72962050  0.83647765  0.09026403    -0.57500
O1528       O  0.82412009  0.83319228  0.15707751    -0.57500
O1529       O  0.79316824  0.87416001  0.10510051    -0.56700
O1530       O  0.92163169  0.84810943  0.28511284    -0.57900
C1531       C  0.83693559  0.83878929  0.23786112     0.74800
O1532       O  0.86490622  0.80216808  0.36601804    -0.59000
C1533       C  0.93458126  0.84355707  0.32280201     0.74700
C1534       C  0.84744912  0.87307815  0.36623722     0.77100
Cd1535     Cd  0.87429357  0.83675272  0.31713788     1.37500
O1536       O  0.86305192  0.83834223  0.23106029    -0.57900
O1537       O  0.85985070  0.87522440  0.32674147    -0.56700
C1538       C  0.87023938  0.78915377  0.33142700     0.77100
O1539       O  0.84892057  0.85401521  0.38567928    -0.59100
O1540       O  0.82852797  0.83854134  0.28042728    -0.57500
O1541       O  0.91973900  0.83755947  0.35773672    -0.57500
O1542       O  0.87650769  0.79822538  0.29244251    -0.56700
C1543       C  0.80598327  0.01783716  0.80880081     0.86400
C1544       C  0.81523065  0.03871745  0.83732228    -0.53800
C1545       C  0.80114605  0.04224399  0.87866345     0.09400
C1546       C  0.78040623  0.02316692  0.88928734     0.20300
C1547       C  0.81081902  0.99832270  0.84450082    -0.54500
C1548       C  0.79702584  0.00112097  0.88742555     0.14300
C1549       C  0.77447835  0.01969661  0.80524169    -0.54100
C1550       C  0.76073996  0.02189317  0.84715137     0.10000
H1551       H  0.83201040  0.04955307  0.82612468     0.14500
H1552       H  0.76951194  0.02553222  0.92185379     0.00300
H1553       H  0.82387952  0.98400505  0.83676506     0.14800
H1554       H  0.76384913  0.01899368  0.77146484     0.14600
C1555       C  0.81025073  0.95461192  0.98310203     0.86400
C1556       C  0.81266689  0.96605092  0.93357845    -0.53800
C1557       C  0.79687409  0.98523496  0.92939641     0.09400
C1558       C  0.77986389  0.99034725  0.97537068     0.20300
C1559       C  0.81794552  0.97379984  0.01803098    -0.54500
C1560       C  0.80206339  0.99272370  0.01436279     0.09500
C1561       C  0.77914636  0.95094523  0.99129186    -0.54100
C1562       C  0.76334005  0.96913070  0.98647234     0.10000
H1563       H  0.82630678  0.95997116  0.90556441     0.14500
H1564       H  0.76502495  0.00399201  0.97439282     0.00300
H1565       H  0.83505350  0.97295840  0.04224516     0.14800
H1566       H  0.76995828  0.93482062  0.99984015     0.14600
C1567       C  0.84533278  0.01963919  0.61009012     0.86400
C1568       C  0.84111846  0.04030565  0.57810530    -0.53800
C1569       C  0.85989751  0.04217106  0.54148556     0.09400
C1570       C  0.87939767  0.02185762  0.53827594     0.20300
C1571       C  0.84250594  0.99975945  0.57469465    -0.54500
C1572       C  0.86018449  0.00093071  0.53595528     0.09500
C1573       C  0.87587718  0.01992748  0.62341862    -0.54100
C1574       C  0.89378511  0.02118544  0.58670152     0.10000
H1575       H  0.82474101  0.05233787  0.58451537     0.14500
H1576       H  0.89424660  0.02318794  0.50941446     0.00300
H1577       H  0.82711801  0.98668774  0.57876752     0.14800
H1578       H  0.88290743  0.01901902  0.65989759     0.14600
C1579       C  0.84287693  0.95612799  0.43800601     0.86400
C1580       C  0.84070695  0.96795676  0.48714875    -0.53800
C1581       C  0.85961875  0.98502277  0.49357840     0.09400
C1582       C  0.87879216  0.98789257  0.44961019     0.20300
C1583       C  0.84005487  0.97576233  0.40249819    -0.54500
C1584       C  0.85912714  0.99250626  0.40823017     0.09500
C1585       C  0.87327243  0.94863982  0.43328480    -0.54100
C1586       C  0.89212725  0.96486545  0.43950328     0.10000
H1587       H  0.82480347  0.96382360  0.51307935     0.14500
H1588       H  0.89402192  0.00070716  0.45338135     0.00300
H1589       H  0.82399983  0.97682098  0.37622574     0.14800
H1590       H  0.87955226  0.93147401  0.42626202     0.14600
C1591       C  0.82060364  0.09983411  0.93683494     0.86400
C1592       C  0.82528226  0.08821232  0.98527709    -0.53800
C1593       C  0.80755674  0.07062045  0.99384103     0.09400
C1594       C  0.78684212  0.06722708  0.95350655     0.20300
C1595       C  0.82240604  0.08030298  0.90013559    -0.54500
C1596       C  0.80444617  0.06296416  0.90905327     0.09500
C1597       C  0.78956754  0.10637445  0.93677643    -0.54100
C1598       C  0.77198662  0.08947331  0.94621918     0.10000
H1599       H  0.84153690  0.09320298  0.00946149     0.14500
H1600       H  0.77234820  0.05447746  0.95971313     0.00300
H1601       H  0.83613715  0.07995297  0.86994840     0.14800
H1602       H  0.78205084  0.12318756  0.93025601     0.14600
C1603       C  0.82268582  0.03752472  0.10982666     0.86400
C1604       C  0.82513494  0.01557321  0.08002422    -0.53800
C1605       C  0.80622020  0.01361848  0.04428974     0.09400
C1606       C  0.78820158  0.03471778  0.04040382     0.20300
C1607       C  0.82671299  0.05616132  0.07239822    -0.54500
C1608       C  0.80839834  0.05484321  0.03544355     0.09500
C1609       C  0.79224739  0.03855692  0.12486310    -0.54100
C1610       C  0.77434093  0.03754693  0.08910104     0.10000
H1611       H  0.84056267  0.00287874  0.08597273     0.14500
H1612       H  0.77263752  0.03319318  0.01327212     0.00300
H1613       H  0.84268601  0.06888126  0.07484263     0.14800
H1614       H  0.78536409  0.03892804  0.16169421     0.14600
C1615       C  0.85496361  0.10051703  0.47999654     0.86400
C1616       C  0.85270550  0.08921348  0.43034174    -0.53800
C1617       C  0.86815861  0.06994613  0.42526447     0.09400
C1618       C  0.88494952  0.06461000  0.47056763     0.20300
C1619       C  0.84731415  0.08151055  0.51521125    -0.54500
C1620       C  0.86290959  0.06247607  0.51025784     0.09500
C1621       C  0.88623964  0.10393466  0.48788345    -0.54100
C1622       C  0.90169818  0.08545622  0.48234004     0.10000
H1623       H  0.83935540  0.09555159  0.40278067     0.14500
H1624       H  0.89983210  0.05102348  0.46859570     0.00300
H1625       H  0.83183915  0.08279675  0.54263504     0.14800
H1626       H  0.89564447  0.11987887  0.49716980     0.14600
C1627       C  0.85586460  0.03619773  0.30689775     0.86400
C1628       C  0.84615160  0.01621567  0.33724994    -0.53800
C1629       C  0.86131105  0.01296735  0.37722669     0.09400
C1630       C  0.88301492  0.03160642  0.38436722     0.20300
C1631       C  0.85297483  0.05661414  0.34156525    -0.54500
C1632       C  0.86733555  0.05396890  0.38327210     0.09500
C1633       C  0.88704841  0.03313363  0.29982335    -0.54100
C1634       C  0.90165969  0.03150113  0.33974242     0.10000
H1635       H  0.82941620  0.00525319  0.32653221     0.14500
H1636       H  0.89440282  0.02956250  0.41619165     0.00300
H1637       H  0.84045014  0.07122785  0.33462504     0.14800
H1638       H  0.89649364  0.03168137  0.26495580     0.14600
O1639       O  0.92913810  0.20578184  0.66160788    -0.57900
C1640       C  0.84325922  0.21425030  0.69852256     0.74800
O1641       O  0.87681618  0.25358802  0.57997971    -0.59000
C1642       C  0.94443950  0.21067343  0.62630194     0.74700
C1643       C  0.86187891  0.18367620  0.55857227     0.77100
Cd1644     Cd  0.88402611  0.21710846  0.62254296     1.37500
O1645       O  0.86878893  0.21038501  0.70556031    -0.57900
O1646       O  0.86872397  0.17955165  0.60085697    -0.56700
C1647       C  0.88232296  0.26502439  0.61672054     0.77100
O1648       O  0.86590693  0.20351409  0.54436880    -0.59100
O1649       O  0.83638943  0.21848302  0.65636117    -0.57500
O1650       O  0.93190787  0.21689706  0.58949685    -0.57500
O1651       O  0.88789223  0.25431974  0.65380875    -0.56700
O1652       O  0.73766126  0.20498212  0.78457964    -0.57900
C1653       C  0.82282998  0.21465610  0.73768536     0.74800
O1654       O  0.79493168  0.25264726  0.86181376    -0.59000
C1655       C  0.72379368  0.21030764  0.82140867     0.74700
C1656       C  0.81073168  0.18243050  0.86955437     0.77100
Cd1657     Cd  0.78421228  0.21731721  0.81668886     1.37500
O1658       O  0.79684059  0.21316960  0.73098023    -0.57900
O1659       O  0.80120193  0.17968096  0.82827825    -0.56700
C1660       C  0.78819414  0.26506286  0.82747789     0.77100
O1661       O  0.80653884  0.20140150  0.88871867    -0.59100
O1662       O  0.83057065  0.21713151  0.78006075    -0.57500
O1663       O  0.73777802  0.21720085  0.85630355    -0.57500
O1664       O  0.78001456  0.25537857  0.79025417    -0.56700
C1665       C  0.84105431  0.12361583  0.48584896    -0.00200
C1666       C  0.85310893  0.14120777  0.45933039    -0.12100
C1667       C  0.85854123  0.16201664  0.48085343     0.02000
C1668       C  0.85009643  0.16572453  0.52830379    -0.00300
C1669       C  0.83185492  0.15033866  0.54935580    -0.12000
C1670       C  0.82611838  0.12982969  0.52735631     0.01900
H1671       H  0.86306930  0.13740247  0.42558835     0.14900
H1672       H  0.82269952  0.15407910  0.58378563     0.14900
C1673       C  0.80392317  0.11645938  0.54683472     0.36500
C1674       C  0.87573866  0.17788323  0.45574897     0.36400
N1675       N  0.78588724  0.10601350  0.56270990    -0.43800
N1676       N  0.88955201  0.19049293  0.43533200    -0.43800
C1677       C  0.83844500  0.03907568  0.15632828    -0.00200
C1678       C  0.84491639  0.01887727  0.17871428    -0.12100
C1679       C  0.84730536  0.01734720  0.22752075     0.02000
C1680       C  0.84442680  0.03668080  0.25682543    -0.00300
C1681       C  0.83951393  0.05723404  0.23459779    -0.12000
C1682       C  0.83626435  0.05858796  0.18532045     0.01900
H1683       H  0.84627130  0.00340089  0.15916147     0.14900
H1684       H  0.83862861  0.07248807  0.25529071     0.14900
C1685       C  0.82808218  0.07992960  0.16630530     0.36500
C1686       C  0.85427753  0.99547964  0.24569463     0.36400
N1687       N  0.82125083  0.09700672  0.15130768    -0.43800
N1688       N  0.85976292  0.97793082  0.25989732    -0.43800
C1689       C  0.83753765  0.12123756  0.92844878    -0.00200
C1690       C  0.83149511  0.13902998  0.96008979    -0.12100
C1691       C  0.82459303  0.16022748  0.94247837     0.02000
C1692       C  0.82553263  0.16387572  0.89308941    -0.00300
C1693       C  0.83921598  0.14805487  0.86433067    -0.12000
C1694       C  0.84658227  0.12720442  0.88243390     0.01900
H1695       H  0.82654598  0.13534061  0.99681589     0.14900
H1696       H  0.84342014  0.15172315  0.82732690     0.14900
C1697       C  0.86465393  0.11310837  0.85436134     0.36500
C1698       C  0.81372862  0.17679522  0.97501248     0.36400
N1699       N  0.87948663  0.10204823  0.83182829    -0.43800
N1700       N  0.80515310  0.19008093  0.00126288    -0.43800
C1701       C  0.81745181  0.01694676  0.75755975    -0.00200
C1702       C  0.82260242  0.03749113  0.73479397    -0.12100
C1703       C  0.82948974  0.03895895  0.68692484     0.02000
C1704       C  0.82926769  0.01961200  0.65742749    -0.00300
C1705       C  0.82199862  0.99914311  0.67905379    -0.12000
C1706       C  0.81572212  0.99773795  0.72798362     0.01900
H1707       H  0.82078149  0.05314091  0.75383248     0.14900
H1708       H  0.82234062  0.98385264  0.65842432     0.14900
C1709       C  0.80696022  0.97638255  0.74631789     0.36500
C1710       C  0.83842224  0.06076521  0.67078835     0.36400
N1711       N  0.79986805  0.95919235  0.76068487    -0.43800
N1712       N  0.84551758  0.07833322  0.65858367    -0.43800
C1713       C  0.83310803  0.89239363  0.38862334    -0.00200
C1714       C  0.83356627  0.89507792  0.43795768    -0.12100
C1715       C  0.82909681  0.91621926  0.45855446     0.02000
C1716       C  0.82521159  0.93514128  0.42898526    -0.00300
C1717       C  0.81732114  0.93075547  0.38175329    -0.12000
C1718       C  0.82207183  0.90979313  0.36106880     0.01900
H1719       H  0.84034156  0.88135868  0.45996421     0.14900
H1720       H  0.81107607  0.94406321  0.35855776     0.14900
C1721       C  0.81713944  0.90707945  0.31087474     0.36500
C1722       C  0.83383351  0.91852304  0.50873619     0.36400
N1723       N  0.81315765  0.90501160  0.27068840    -0.43800
N1724       N  0.83765118  0.92012257  0.54904724    -0.43800
C1725       C  0.81434059  0.88957596  0.03525710    -0.00200
C1726       C  0.80883110  0.89221931  0.98682452    -0.12100
C1727       C  0.81416610  0.91277347  0.96412546     0.02000
C1728       C  0.82373374  0.93146563  0.99089970    -0.00300
C1729       C  0.83518328  0.92675224  0.03563374    -0.12000
C1730       C  0.83006284  0.90629979  0.05816190     0.01900
H1731       H  0.79814781  0.87903186  0.96778822     0.14900
H1732       H  0.84555388  0.93952367  0.05594075     0.14900
C1733       C  0.84009308  0.90332286  0.10583120     0.36500
C1734       C  0.80524919  0.91532109  0.91577551     0.36400
N1735       N  0.84816324  0.90091337  0.14396587    -0.43800
N1736       N  0.79815712  0.91740438  0.87697723    -0.43800
C1737       C  0.74421278  0.03651377  0.09673319    -0.00200
C1738       C  0.72991395  0.02155719  0.06846320    -0.12100
C1739       C  0.70150362  0.02284440  0.06431257     0.02000
C1740       C  0.68584594  0.03617966  0.09604056    -0.00300
C1741       C  0.70035070  0.05018799  0.12771568    -0.12000
C1742       C  0.72933435  0.05088060  0.12755972     0.01900
H1743       H  0.74127297  0.01019873  0.04549460     0.14900
H1744       H  0.68913243  0.06143398  0.15124363     0.14900
C1745       C  0.74286723  0.06689126  0.15808007     0.36500
C1746       C  0.69200235  0.01516634  0.01959101     0.36400
N1747       N  0.75357116  0.07977057  0.18262847    -0.43800
N1748       N  0.68837027  0.01073733  0.98032030    -0.43800
C1749       C  0.68274581  0.08856898  0.95590876    -0.00200
C1750       C  0.69869475  0.08975699  0.99728087    -0.12100
C1751       C  0.72773477  0.09208657  0.99456455     0.02000
C1752       C  0.74132269  0.09232486  0.95004379    -0.00300
C1753       C  0.72528702  0.09272443  0.90877853    -0.12000
C1754       C  0.69616536  0.09119965  0.91147646     0.01900
H1755       H  0.68847115  0.08885805  0.03164836     0.14900
H1756       H  0.73556730  0.09325936  0.87442859     0.14900
C1757       C  0.68048796  0.09158847  0.86816107     0.36500
C1758       C  0.74350870  0.09391128  0.03755766     0.36400
N1759       N  0.66783685  0.09193034  0.83352474    -0.43800
N1760       N  0.75673088  0.09585350  0.07131925    -0.43800
C1761       C  0.59454382  0.16555429  0.91359657    -0.00200
C1762       C  0.60235751  0.16301742  0.96094917    -0.12100
C1763       C  0.59949755  0.14221088  0.98342630     0.02000
C1764       C  0.59004195  0.12334464  0.95712736    -0.00300
C1765       C  0.57575156  0.12779220  0.91477445    -0.12000
C1766       C  0.57838497  0.14859829  0.89254303     0.01900
H1767       H  0.61333192  0.17645308  0.97869918     0.14900
H1768       H  0.56488364  0.11477378  0.89597733     0.14900
C1769       C  0.56545829  0.15181969  0.84708739     0.36500
C1770       C  0.61094062  0.13990245  0.03022113     0.36400
N1771       N  0.55493012  0.15447856  0.81085853    -0.43800
N1772       N  0.11959804  0.13825551  0.06809011    -0.43800
C1773       C  0.98989464  0.03573824  0.35909830    -0.00200
C1774       C  0.97865563  0.04331577  0.31609194    -0.12100
C1775       C  0.95017688  0.04202375  0.30737620     0.02000
C1776       C  0.93251174  0.03120593  0.34074190    -0.00300
C1777       C  0.94432667  0.02277491  0.38145572    -0.12000
C1778       C  0.97110045  0.02809211  0.39393918     0.01900
H1779       H  0.99169270  0.05140686  0.28986422     0.14900
H1780       H  0.93180968  0.01387557  0.40644193     0.14900
C1781       C  0.97454405  0.03148756  0.44381763     0.36500
C1782       C  0.94036916  0.05295802  0.26526309     0.36400
N1783       N  0.97481067  0.03495606  0.48414389    -0.43800
N1784       N  0.93287879  0.06173710  0.23124690    -0.43800
C1785       C  0.58516984  0.03508849  0.28970125    -0.00200
C1786       C  0.57886255  0.05450964  0.26340492    -0.12100
C1787       C  0.58537163  0.05657126  0.21486463     0.02000
C1788       C  0.59914941  0.03889483  0.19075898    -0.00300
C1789       C  0.60750872  0.02043697  0.21840090    -0.12000
C1790       C  0.60193049  0.01881517  0.26698832     0.01900
H1791       H  0.56709460  0.06778544  0.28055890     0.14900
H1792       H  0.61986731  0.00731975  0.20189708     0.14900
C1793       C  0.61616152  0.00132688  0.29181318     0.36500
C1794       C  0.57738475  0.07711309  0.19247850     0.36400
N1795       N  0.62825605  0.98727131  0.31060186    -0.43800
N1796       N  0.57054554  0.09394120  0.17626559    -0.43800
C1797       C  0.99024981  0.08631781  0.49743786    -0.00200
C1798       C  0.97855456  0.08497638  0.45220877    -0.12100
C1799       C  0.94969982  0.08489162  0.44679030     0.02000
C1800       C  0.93223691  0.08575206  0.48708350    -0.00300
C1801       C  0.94393554  0.08768921  0.53227837    -0.12000
C1802       C  0.97282478  0.08822256  0.53760758     0.01900
H1803       H  0.99199072  0.08373147  0.42121507     0.14900
H1804       H  0.93049515  0.08883015  0.56326976     0.14900
C1805       C  0.98432633  0.09110034  0.58424435     0.36500
C1806       C  0.93833421  0.08469756  0.39968344     0.36400
N1807       N  0.99395929  0.09386326  0.62121150    -0.43800
N1808       N  0.92891193  0.08496921  0.36214097    -0.43800
C1809       C  0.57431347  0.16142149  0.55115100    -0.00200
C1810       C  0.58867635  0.14592089  0.57885216    -0.12100
C1811       C  0.59510925  0.12464833  0.56103483     0.02000
C1812       C  0.58474046  0.11802971  0.51640158    -0.00300
C1813       C  0.57760169  0.13536190  0.48486145    -0.12000
C1814       C  0.57128149  0.15684568  0.50234149     0.01900
H1815       H  0.59405787  0.15016820  0.61505239     0.14900
H1816       H  0.57138177  0.13108149  0.44909123     0.14900
C1817       C  0.55838092  0.17262869  0.47099425     0.36500
C1818       C  0.61336739  0.11072173  0.58814508     0.36400
N1819       N  0.54797572  0.18522692  0.44578988    -0.43800
N1820       N  0.62828727  0.09976425  0.60995755    -0.43800
C1821       C  0.67445640  0.96358413  0.99648923    -0.00200
C1822       C  0.69049119  0.96259234  0.03760801    -0.12100
C1823       C  0.71949459  0.96423856  0.03485460     0.02000
C1824       C  0.73270907  0.96752636  0.99054353    -0.00300
C1825       C  0.71680166  0.96699015  0.94912735    -0.12000
C1826       C  0.68782770  0.96459914  0.95183370     0.01900
H1827       H  0.68027967  0.96147155  0.07195042     0.14900
H1828       H  0.72699734  0.96844960  0.91481935     0.14900
C1829       C  0.67195807  0.96376339  0.90880439     0.36500
C1830       C  0.73529063  0.96323765  0.07799609     0.36400
N1831       N  0.65876508  0.96268717  0.87484544    -0.43800
N1832       N  0.74809428  0.96239694  0.11241829    -0.43800
C1833       C  0.72981330  0.02094002  0.84994549    -0.00200
C1834       C  0.71551800  0.00738348  0.81712353    -0.12100
C1835       C  0.68652897  0.00596799  0.81786838     0.02000
C1836       C  0.67129217  0.01924421  0.85043257    -0.00300
C1837       C  0.68536677  0.03403413  0.87948206    -0.12000
C1838       C  0.71386890  0.03331601  0.88305422     0.01900
H1839       H  0.72695594  0.99692705  0.79228476     0.14900
H1840       H  0.67387925  0.04493149  0.90316588     0.14900
C1841       C  0.72342336  0.04093774  0.92784218     0.36500
C1842       C  0.67338647  0.99036673  0.78595561     0.36400
N1843       N  0.72701392  0.04540678  0.96712282    -0.43800
N1844       N  0.66282823  0.97792191  0.76024929    -0.43800
C1845       C  0.92247362  0.95980845  0.44062610    -0.00200
C1846       C  0.94007352  0.96776514  0.40439477    -0.12100
C1847       C  0.96901061  0.96895196  0.41099248     0.02000
C1848       C  0.98056537  0.96263003  0.45476175    -0.00300
C1849       C  0.96338174  0.95190596  0.48817909    -0.12000
C1850       C  0.93456771  0.95025277  0.48129448     0.01900
H1851       H  0.93109738  0.97414318  0.37208698     0.14900
H1852       H  0.97233548  0.94567726  0.52064917     0.14900
C1853       C  0.91758196  0.94091106  0.51868612     0.36500
C1854       C  0.98645275  0.97626261  0.37220879     0.36400
N1855       N  0.90398662  0.93343234  0.54871011    -0.43800
N1856       N  0.00035312  0.98182123  0.34071609    -0.43800
C1857       C  0.98121812  0.02068823  0.61155516    -0.00200
C1858       C  0.96947302  0.00555480  0.58085858    -0.12100
C1859       C  0.94188133  0.00717330  0.57006189     0.02000
C1860       C  0.92410146  0.02148475  0.59513552    -0.00300
C1861       C  0.93537604  0.03486590  0.63142955    -0.12000
C1862       C  0.96411581  0.03494625  0.63917843     0.01900
H1863       H  0.98270446  0.99429428  0.56034060     0.14900
H1864       H  0.92202869  0.04583030  0.65217095     0.14900
C1865       C  0.97528040  0.04956665  0.67505779     0.36500
C1866       C  0.93658139  0.00055369  0.52366153     0.36400
N1867       N  0.98399086  0.06113555  0.70437596    -0.43800
N1868       N  0.93744097  0.99832385  0.48350157    -0.43800
C1869       C  0.57653540  0.01454429  0.79194262    -0.00200
C1870       C  0.56883269  0.03425853  0.76901994    -0.12100
C1871       C  0.56528447  0.03511490  0.72034978     0.02000
C1872       C  0.56877477  0.01560338  0.69156821    -0.00300
C1873       C  0.57488269  0.99544402  0.71444077    -0.12000
C1874       C  0.57872056  0.99471818  0.76379523     0.01900
H1875       H  0.56700635  0.04985679  0.78800756     0.14900
H1876       H  0.57596309  0.98004247  0.69421361     0.14900
C1877       C  0.58636356  0.97350995  0.78404569     0.36500
C1878       C  0.55628669  0.05643926  0.70190481     0.36400
N1879       N  0.09272259  0.95650933  0.80010477    -0.43800
N1880       N  0.54905457  0.07354719  0.68761854    -0.43800
C1881       C  0.56264198  0.88602251  0.42355402    -0.00200
C1882       C  0.58109716  0.90102825  0.40183451    -0.12100
C1883       C  0.58745771  0.92150909  0.42335900     0.02000
C1884       C  0.57298213  0.92807045  0.46509805    -0.00300
C1885       C  0.56122422  0.91062337  0.49251776    -0.12000
C1886       C  0.55504412  0.88984361  0.47135380     0.01900
H1887       H  0.58978292  0.89709329  0.36715103     0.14900
H1888       H  0.55169553  0.91462841  0.52650767     0.14900
C1889       C  0.53792986  0.87414784  0.49710616     0.36500
C1890       C  0.60966052  0.93456415  0.40296744     0.36400
N1891       N  0.52420588  0.86152208  0.51765417    -0.43800
N1892       N  0.62770938  0.94470402  0.38626172    -0.43800
C1893       C  0.58884513  0.89042527  0.05598322    -0.00200
C1894       C  0.57481002  0.90641067  0.08377348    -0.12100
C1895       C  0.56899766  0.92761048  0.06575580     0.02000
C1896       C  0.57951521  0.93355587  0.02063259    -0.00300
C1897       C  0.58621444  0.91578410  0.98921831    -0.12000
C1898       C  0.59203337  0.89440333  0.00697868     0.01900
H1899       H  0.56931610  0.90262290  0.12025000     0.14900
H1900       H  0.59251326  0.91958318  0.95311827     0.14900
C1901       C  0.60457596  0.87808406  0.97559115     0.36500
C1902       C  0.55131950  0.94219352  0.09335773     0.36400
N1903       N  0.61467149  0.86506634  0.95031433    -0.43800
N1904       N  0.53681881  0.95362764  0.11566382    -0.43800
C1905       C  0.80682015  0.51419887  0.20409222    -0.00200
C1906       C  0.82195835  0.49648536  0.22328318    -0.12100
C1907       C  0.82980134  0.49668925  0.27105860     0.02000
C1908       C  0.82322147  0.51526335  0.30096658    -0.00300
C1909       C  0.80593506  0.53186679  0.28271803    -0.12000
C1910       C  0.79806376  0.53170436  0.23533104     0.01900
H1911       H  0.82766022  0.48227729  0.20149092     0.14900
H1912       H  0.79896762  0.54569492  0.30430065     0.14900
C1913       C  0.78038178  0.54984635  0.22030478     0.36500
C1914       C  0.84599990  0.47804118  0.28761098     0.36400
N1915       N  0.76609042  0.56430562  0.20866764    -0.43800
N1916       N  0.85896407  0.46305231  0.30061255    -0.43800
C1917       C  0.82414456  0.38791489  0.92157922    -0.00200
C1918       C  0.81551342  0.38959205  0.96912112    -0.12100
C1919       C  0.81868334  0.40982227  0.99425466     0.02000
C1920       C  0.82904503  0.42905165  0.97037423    -0.00300
C1921       C  0.84413021  0.42520904  0.92800751    -0.12000
C1922       C  0.84121986  0.40501990  0.90306264     0.01900
H1923       H  0.80388933  0.37599855  0.98509969     0.14900
H1924       H  0.85576961  0.43844059  0.91120807     0.14900
C1925       C  0.85490584  0.40267358  0.85751107     0.36500
C1926       C  0.80663492  0.41143480  0.04119865     0.36400
N1927       N  0.86602585  0.40077624  0.82115631    -0.43800
N1928       N  0.79703074  0.41264891  0.07889432    -0.43800
C1929       C  0.84445967  0.39147668  0.55984314    -0.00200
C1930       C  0.84468025  0.39526045  0.51091271    -0.12100
C1931       C  0.83846915  0.41658457  0.49328892     0.02000
C1932       C  0.83335395  0.43457350  0.52557501    -0.00300
C1933       C  0.82613501  0.42887921  0.57247161    -0.12000
C1934       C  0.83229447  0.40767852  0.59001932     0.01900
H1935       H  0.85249433  0.38242606  0.48700239     0.14900
H1936       H  0.81917804  0.44140108  0.59753410     0.14900
C1937       C  0.82782136  0.40350000  0.63994363     0.36500
C1938       C  0.84282223  0.42039173  0.44325037     0.36400
N1939       N  0.82430407  0.40014318  0.67992313    -0.43800
N1940       N  0.84635282  0.42344360  0.40315436    -0.43800
C1941       C  0.83368077  0.66538982  0.42227935    -0.00200
C1942       C  0.83890781  0.66384679  0.47105825    -0.12100
C1943       C  0.83400302  0.64363929  0.49520072     0.02000
C1944       C  0.82554992  0.62441278  0.46927603    -0.00300
C1945       C  0.81305975  0.62827884  0.42510692    -0.12000
C1946       C  0.81801955  0.64822288  0.40075824     0.01900
H1947       H  0.84916312  0.67752975  0.48919198     0.14900
H1948       H  0.80237425  0.61511183  0.40644791     0.14900
C1949       C  0.80822865  0.65004672  0.35268446     0.36500
C1950       C  0.84224275  0.64201934  0.54409362     0.36400
N1951       N  0.80042014  0.65141372  0.31414747    -0.43800
N1952       N  0.84864063  0.64073840  0.58341941    -0.43800
C1953       C  0.82042128  0.61622373  0.03018635    -0.00200
C1954       C  0.82824711  0.62156488  0.07688551    -0.12100
C1955       C  0.82393636  0.64304891  0.09517487     0.02000
C1956       C  0.81253170  0.65975131  0.06617946    -0.00300
C1957       C  0.81131814  0.65594112  0.01726118    -0.12000
C1958       C  0.81593419  0.63441357  0.99878816     0.01900
H1959       H  0.83475731  0.60882577  0.10123386     0.14900
H1960       H  0.80421216  0.66911645  0.99410365     0.14900
C1961       C  0.81183831  0.63100567  0.94865424     0.36500
C1962       C  0.82973378  0.64716697  0.14465021     0.36400
N1963       N  0.80881609  0.62840073  0.90835190    -0.43800
N1964       N  0.83434041  0.65056120  0.18423057    -0.43800
C1965       C  0.83454053  0.53458735  0.80040744    -0.00200
C1966       C  0.83634906  0.55568595  0.77824654    -0.12100
C1967       C  0.84027485  0.55779571  0.72884767     0.02000
C1968       C  0.84172238  0.53851851  0.69941057    -0.00300
C1969       C  0.84207248  0.51766728  0.72240177    -0.12000
C1970       C  0.83775930  0.51540938  0.77086918     0.01900
H1971       H  0.83305659  0.57073311  0.79902801     0.14900
H1972       H  0.84647868  0.50247721  0.70281733     0.14900
C1973       C  0.83445894  0.49270752  0.78743222     0.36500
C1974       C  0.84312285  0.58002400  0.70986991     0.36400
N1975       N  0.83174091  0.47442383  0.79992404    -0.43800
N1976       N  0.84538811  0.59792284  0.69493358    -0.43800
C1977       C  0.67702999  0.46993705  0.95218644    -0.00200
C1978       C  0.68884895  0.44884977  0.96278332    -0.12100
C1979       C  0.71762728  0.44593444  0.96733104     0.02000
C1980       C  0.73563291  0.46424697  0.95940032    -0.00300
C1981       C  0.72381894  0.48453019  0.94708750    -0.12000
C1982       C  0.69558250  0.48824054  0.94826919     0.01900
H1983       H  0.67571168  0.43459169  0.97017963     0.14900
H1984       H  0.73675472  0.49837967  0.93766669     0.14900
C1985       C  0.68880567  0.51156344  0.95224244     0.36500
C1986       C  0.72741784  0.42447801  0.98327231     0.36400
N1987       N  0.68673147  0.53066706  0.95768267    -0.43800
N1988       N  0.73515054  0.40725771  0.99614228    -0.43800
C1989       C  0.58551793  0.43419882  0.92182757    -0.00200
C1990       C  0.57633273  0.42889249  0.87586331    -0.12100
C1991       C  0.58161331  0.40779443  0.85623322     0.02000
C1992       C  0.59442277  0.39122493  0.88383910    -0.00300
C1993       C  0.59646193  0.39467884  0.93281026    -0.12000
C1994       C  0.59168004  0.41599622  0.95228808     0.01900
H1995       H  0.56808771  0.44151591  0.85283503     0.14900
H1996       H  0.60484785  0.38159041  0.95490377     0.14900
C1997       C  0.59834576  0.41947824  0.00157989     0.36500
C1998       C  0.57571976  0.40415559  0.80664005     0.36400
N1999       N  0.60385087  0.42226623  0.04101425    -0.43800
N2000       N  0.57115906  0.40129388  0.76686134    -0.43800
C2001       C  0.66459698  0.51956443  0.09711801    -0.00200
C2002       C  0.67924954  0.50246007  0.07367708    -0.12100
C2003       C  0.70728979  0.49908300  0.08306514     0.02000
C2004       C  0.72150000  0.51444593  0.11150861    -0.00300
C2005       C  0.70673618  0.53057363  0.13732670    -0.12000
C2006       C  0.67809439  0.53236416  0.13243600     0.01900
H2007       H  0.66837328  0.49091132  0.05061242     0.14900
H2008       H  0.71752896  0.54142575  0.16197143     0.14900
C2009       C  0.66328747  0.54654482  0.16561369     0.36500
C2010       C  0.72004668  0.47798875  0.07149159     0.36400
N2011       N  0.65158554  0.55757460  0.19307946    -0.43800
N2012       N  0.73070680  0.46083987  0.06629669    -0.43800
C2013       C  0.92601724  0.46607194  0.49816112    -0.00200
C2014       C  0.94370073  0.46324641  0.53688409    -0.12100
C2015       C  0.97242039  0.46064871  0.52991111     0.02000
C2016       C  0.98365205  0.46053043  0.48347324    -0.00300
C2017       C  0.96568036  0.46141030  0.44467826    -0.12000
C2018       C  0.93701032  0.46419690  0.45177078     0.01900
H2019       H  0.93519050  0.46396743  0.57259737     0.14900
H2020       H  0.97419639  0.46104946  0.40893742     0.14900
C2021       C  0.91917090  0.46499684  0.41111622     0.36500
C2022       C  0.99018856  0.46011162  0.57078230     0.36400
N2023       N  0.90462332  0.46533633  0.37877775    -0.43800
N2024       N  0.50459247  0.46001001  0.60358704    -0.43800
C2025       C  0.57807859  0.42774487  0.47133995    -0.00200
C2026       C  0.56634213  0.40950635  0.44643428    -0.12100
C2027       C  0.56213299  0.38898781  0.46956357     0.02000
C2028       C  0.57226888  0.38620036  0.51597225    -0.00300
C2029       C  0.59102370  0.40213700  0.53359726    -0.12000
C2030       C  0.59511269  0.42245344  0.51001427     0.01900
H2031       H  0.55508196  0.41267330  0.41404984     0.14900
H2032       H  0.60161059  0.39909954  0.56667796     0.14900
C2033       C  0.61746464  0.43688364  0.52454813     0.36500
C2034       C  0.54409879  0.37263260  0.44797779     0.36400
N2035       N  0.63562806  0.44834344  0.53586441    -0.43800
N2036       N  0.52954014  0.35956013  0.43080312    -0.43800
C2037       C  0.91827035  0.52090075  0.36176133    -0.00200
C2038       C  0.92819840  0.50693063  0.32477877    -0.12100
C2039       C  0.95659758  0.50471258  0.31568785     0.02000
C2040       C  0.97532745  0.51818571  0.34103100    -0.00300
C2041       C  0.96528455  0.53329944  0.37436608    -0.12000
C2042       C  0.93784685  0.53291946  0.38851320     0.01900
H2043       H  0.91395888  0.49660123  0.30476155     0.14900
H2044       H  0.97951439  0.54407421  0.39301648     0.14900
C2045       C  0.93357743  0.54055665  0.43591568     0.36500
C2046       C  0.96576970  0.48794114  0.28207092     0.36400
N2047       N  0.93414841  0.54512100  0.47568476    -0.43800
N2048       N  0.47322403  0.47434880  0.25547528    -0.43800
C2049       C  0.56181725  0.51514374  0.24958587    -0.00200
C2050       C  0.56349631  0.53605952  0.22714637    -0.12100
C2051       C  0.56732619  0.53822181  0.17861474     0.02000
C2052       C  0.56829719  0.51897039  0.14876188    -0.00300
C2053       C  0.56421489  0.49799947  0.17044828    -0.12000
C2054       C  0.56070998  0.49596790  0.21982336     0.01900
H2055       H  0.56103327  0.55141175  0.24706230     0.14900
H2056       H  0.56554227  0.48287543  0.14930776     0.14900
C2057       C  0.55526815  0.47398353  0.23855685     0.36500
C2058       C  0.57286365  0.56070857  0.16234441     0.36400
N2059       N  0.05064236  0.45639100  0.25331355    -0.43800
N2060       N  0.57742960  0.57880657  0.15016300    -0.43800
C2061       C  0.67166621  0.58583357  0.98686771    -0.00200
C2062       C  0.69030527  0.59103494  0.95051089    -0.12100
C2063       C  0.71878928  0.59001461  0.95816222     0.02000
C2064       C  0.72865561  0.58286784  0.00238550    -0.00300
C2065       C  0.70990316  0.57877026  0.03974019    -0.12000
C2066       C  0.68136100  0.58096282  0.03235002     0.01900
H2067       H  0.68246829  0.59642294  0.91672312     0.14900
H2068       H  0.71756010  0.57459063  0.07459861     0.14900
C2069       C  0.66209101  0.58056824  0.07171773     0.36500
C2070       C  0.73747576  0.59721771  0.92097037     0.36400
N2071       N  0.64542731  0.58151592  0.10144059    -0.43800
N2072       N  0.75239213  0.60326820  0.89129463    -0.43800
C2073       C  0.58072458  0.62316196  0.97724866    -0.00200
C2074       C  0.59338319  0.64103143  0.95243050    -0.12100
C2075       C  0.59944261  0.66127198  0.97599004     0.02000
C2076       C  0.59024038  0.66452079  0.02326925    -0.00300
C2077       C  0.57125835  0.64910314  0.04229831    -0.12000
C2078       C  0.56537845  0.62900979  0.01861981     0.01900
H2079       H  0.60374440  0.63756629  0.91887153     0.14900
H2080       H  0.56158933  0.65246325  0.07649431     0.14900
C2081       C  0.54288171  0.61551307  0.03669933     0.36500
C2082       C  0.61821317  0.67678005  0.95328020     0.36400
N2083       N  0.52475973  0.60486008  0.05163763    -0.43800
N2084       N  0.63343999  0.68902078  0.93486799    -0.43800
C2085       C  0.68283395  0.53341198  0.83720325    -0.00200
C2086       C  0.69503265  0.51216186  0.83740037    -0.12100
C2087       C  0.72356949  0.50991015  0.84467843     0.02000
C2088       C  0.73945372  0.52900318  0.85543191    -0.00300
C2089       C  0.72760011  0.55021650  0.85112117    -0.12000
C2090       C  0.69947409  0.55257001  0.84113112     0.01900
H2091       H  0.68227064  0.49743218  0.83200712     0.14900
H2092       H  0.74066030  0.56482527  0.85393789     0.14900
C2093       C  0.68828002  0.57452749  0.83260279     0.36500
C2094       C  0.73613906  0.48808949  0.84031601     0.36400
N2095       N  0.67917306  0.59199389  0.82475250    -0.43800
N2096       N  0.74614119  0.47057081  0.83694884    -0.43800
C2097       C  0.98553515  0.53184560  0.58753943    -0.00200
C2098       C  0.97589002  0.54668120  0.62317747    -0.12100
C2099       C  0.94746878  0.54941549  0.63195701     0.02000
C2100       C  0.92850164  0.53554084  0.60810213    -0.00300
C2101       C  0.93834132  0.51961340  0.57623836    -0.12000
C2102       C  0.96578782  0.51953972  0.56195099     0.01900
H2103       H  0.99040630  0.55717753  0.64222208     0.14900
H2104       H  0.92395601  0.50864422  0.55845019     0.14900
C2105       C  0.96998622  0.51180774  0.51466835     0.36500
C2106       C  0.93844403  0.56713614  0.66339182     0.36400
N2107       N  0.46975276  0.50747753  0.47471815    -0.43800
N2108       N  0.93115253  0.58138269  0.68846130    -0.43800
C2109       C  0.59683266  0.53636029  0.74600601    -0.00200
C2110       C  0.58269343  0.55456758  0.72655659    -0.12100
C2111       C  0.57466722  0.55447596  0.67880993     0.02000
C2112       C  0.58047595  0.53571369  0.64891431    -0.00300
C2113       C  0.59648454  0.51840628  0.66768203    -0.12000
C2114       C  0.60418339  0.51833029  0.71515482     0.01900
H2115       H  0.57782734  0.56903307  0.74817231     0.14900
H2116       H  0.60228245  0.50407816  0.64660609     0.14900
C2117       C  0.61992886  0.49919625  0.73086337     0.36500
C2118       C  0.55898880  0.57343951  0.66235292     0.36400
N2119       N  0.63249091  0.48385140  0.74319452    -0.43800
N2120       N  0.54638099  0.58863694  0.64939041    -0.43800
C2121       C  0.97854441  0.58742933  0.45026043    -0.00200
C2122       C  0.96105233  0.58920782  0.41094103    -0.12100
C2123       C  0.93213633  0.59139784  0.41699661     0.02000
C2124       C  0.92038548  0.59216589  0.46312186    -0.00300
C2125       C  0.93812984  0.59215516  0.50233744    -0.12000
C2126       C  0.96698530  0.58979961  0.49617139     0.01900
H2127       H  0.96987601  0.58794582  0.37551003     0.14900
H2128       H  0.92932214  0.59296457  0.53784065     0.14900
C2129       C  0.98447556  0.58993554  0.53734008     0.36500
C2130       C  0.91477458  0.59077454  0.37560665     0.36400
N2131       N  0.49887507  0.59048062  0.56978776    -0.43800
N2132       N  0.90087833  0.59004180  0.34241485    -0.43800
C2133       C  0.56345937  0.66136911  0.39410922    -0.00200
C2134       C  0.57702919  0.64579623  0.36473655    -0.12100
C2135       C  0.58332157  0.62442703  0.38119483     0.02000
C2136       C  0.57340029  0.61773636  0.42639268    -0.00300
C2137       C  0.56701405  0.63505783  0.45908495    -0.12000
C2138       C  0.56133163  0.65678123  0.44300034     0.01900
H2139       H  0.58187560  0.65008037  0.32824718     0.14900
H2140       H  0.56127828  0.63079205  0.49519887     0.14900
C2141       C  0.55042513  0.67303612  0.47620486     0.36500
C2142       C  0.60104736  0.61062736  0.35184105     0.36400
N2143       N  0.54181743  0.68610934  0.50290610    -0.43800
N2144       N  0.11561932  0.59986468  0.32818884    -0.43800
loop_ 
_geom_bond_atom_site_label_1 
_geom_bond_atom_site_label_2 
_geom_bond_distance 
_geom_bond_site_symmetry_2 
_ccdc_geom_bond_type 
C1            C2   1.549       .  S
C1            C7   1.539       .  S
C1            C5   1.550       .  S
C1         C1064   1.541       .  S
C2            H9   1.084       .  S
C2            C3   1.377       .  D
C3            C4   1.551       .  S
C3           C18   1.510       .  S
C4            C8   1.536       .  S
C4            C6   1.547       .  S
C4           H10   1.089       .  S
C5           H11   1.070       .  S
C5            C6   1.371       .  D
C6           C77   1.514       .  S
C7           H12   1.087       .  S
C7            C8   1.345       .  D
C8         C2121   1.492   1_455  S
C13          C14   1.559       .  S
C13          C19   1.527       .  S
C13          C17   1.550       .  S
C13        C1040   1.536       .  S
C14          H21   1.078       .  S
C14          C15   1.370       .  D
C15          C16   1.551       .  S
C15          C92   1.520       .  S
C16          C20   1.532       .  S
C16          C18   1.540       .  S
C16          H22   1.068       .  S
C17          H23   1.084       .  S
C17          C18   1.374       .  D
C19          H24   1.087       .  S
C19          C20   1.350       .  D
C20        C2097   1.487   1_455  S
C25          C26   1.553       .  S
C25          C31   1.529       .  S
C25          C29   1.568       .  S
C25        C1037   1.531       .  S
C26          H33   1.084       .  S
C26          C27   1.371       .  D
C27          C28   1.533       .  S
C27         C116   1.512       .  S
C28          C32   1.517       .  S
C28          C30   1.547       .  S
C28          H34   1.068       .  S
C29          H35   1.082       .  S
C29          C30   1.383       .  D
C30          C39   1.520       .  S
C31          H36   1.088       .  S
C31          C32   1.337       .  D
C32        C1013   1.465       .  S
C37          C38   1.563       .  S
C37          C43   1.539       .  S
C37          C41   1.557   1_556  S
C37        C1001   1.548       .  S
C38          H45   1.085       .  S
C38          C39   1.384       .  D
C39          C40   1.546       .  S
C40          C44   1.514       .  S
C40          C42   1.532   1_556  S
C40          H46   1.076       .  S
C41          H47   1.071       .  S
C41          C42   1.369       .  D
C42         C101   1.508       .  S
C43          H48   1.087       .  S
C43          C44   1.340       .  D
C44         C989   1.463       .  S
O49          C52   1.269       .  A
O49         Cd54   2.487       .  S
C50          O59   1.265       .  A
C50          O55   1.268       .  A
C50         C198   1.483       .  S
O51          C57   1.269       .  A
O51         Cd54   2.524       .  S
C52          O60   1.266       .  A
C52          C65   1.476       .  S
C53          O58   1.270       .  A
C53          O56   1.260       .  A
C53         C301   1.469       .  S
Cd54         O61   2.457       .  S
Cd54         O60   2.490       .  S
Cd54         O59   2.480       .  S
Cd54         O55   2.537       .  S
Cd54         O58   2.536       .  S
Cd54         O56   2.406       .  S
C57          O61   1.267       .  A
C57        C1004   1.491       .  S
O62          C65   1.271       .  A
O62         Cd67   2.508       .  S
C63          O68   1.269       .  A
C63        O1144   1.265       .  A
C63         C211   1.487       .  S
O64          C70   1.270       .  A
O64         Cd67   2.512       .  S
C65          O73   1.264       .  A
C66          O71   1.269       .  A
C66          O69   1.262       .  A
C66         C318   1.466       .  S
Cd67         O74   2.416       .  S
Cd67         O73   2.465       .  S
Cd67         O72   2.494   1_455  S
Cd67         O71   2.528       .  S
Cd67         O69   2.401       .  S
Cd67       O1140   2.540   1_455  S
O68       Cd1139   2.539       .  S
C70          O74   1.266       .  A
C70        C1061   1.483       .  S
O72        C1135   1.265       .  A
C75          C76   1.555       .  S
C75          C81   1.522       .  S
C75          C79   1.558       .  S
C75         C977   1.529       .  S
C76          H83   1.081       .  S
C76          C77   1.367       .  D
C77          C78   1.533       .  S
C78          C82   1.528       .  S
C78          C80   1.552       .  S
C78          H84   1.080       .  S
C79          H85   1.083       .  S
C79          C80   1.380       .  D
C80          C89   1.516       .  S
C81          H86   1.087       .  S
C81          C82   1.340       .  D
C82        C2040   1.465   1_455  S
C87          C88   1.556       .  S
C87          C93   1.544       .  S
C87          C91   1.566       .  S
C87         C953   1.540       .  S
C88          H95   1.085       .  S
C88          C89   1.377       .  D
C89          C90   1.538       .  S
C90          C94   1.526       .  S
C90          C92   1.531       .  S
C90          H96   1.051       .  S
C91          H97   1.076       .  S
C91          C92   1.375       .  D
C93          H98   1.087       .  S
C93          C94   1.340       .  D
C94        C2016   1.483   1_455  S
C99         C100   1.547       .  S
C99         C105   1.523       .  S
C99         C103   1.555       .  S
C99         C980   1.523       .  S
C100        H107   1.082       .  S
C100        C101   1.368       .  D
C101        C102   1.542       .  S
C102        C106   1.524       .  S
C102        C104   1.553       .  S
C102        H108   1.084       .  S
C103        H109   1.084       .  S
C103        C104   1.381       .  D
C104        C113   1.507   1_554  S
C105        H110   1.088       .  S
C105        C106   1.335       .  D
C106        C929   1.474       .  S
C111        C112   1.550       .  S
C111        C117   1.537       .  S
C111        C115   1.552       .  S
C111        C917   1.538       .  S
C112        H119   1.084   1_556  S
C112        C113   1.374       .  D
C113        C114   1.539       .  S
C114        C118   1.533       .  S
C114        C116   1.544       .  S
C114        H120   1.056       .  S
C115        H121   1.078       .  S
C115        C116   1.366       .  D
C117        H122   1.084       .  S
C117        C118   1.359       .  D
C118        C905   1.509       .  S
O123        C126   1.269       .  A
O123       Cd128   2.550       .  S
C124        O133   1.263       .  A
C124        O129   1.272       .  A
C124        C139   1.475       .  S
O125        C131   1.268       .  A
O125       Cd128   2.523       .  S
C126        O134   1.265       .  A
C126        C237   1.488       .  S
C127        O132   1.270       .  A
C127        O130   1.266       .  A
C127        C920   1.480       .  S
Cd128       O135   2.408       .  S
Cd128       O134   2.488       .  S
Cd128       O133   2.455       .  S
Cd128       O129   2.512       .  S
Cd128       O132   2.505       .  S
Cd128       O130   2.414       .  S
C131        O135   1.263       .  A
C131        C427   1.467       .  S
O136        C139   1.270       .  A
O136       Cd141   2.481       .  S
C137        O142   1.269       .  A
C137       O1218   1.264       .  A
C137        C224   1.485       .  S
O138        C144   1.269       .  A
O138       Cd141   2.503       .  S
C139        O147   1.265       .  A
C140        O145   1.269       .  A
C140        O143   1.261       .  A
C140        C440   1.467       .  S
Cd141       O148   2.450       .  S
Cd141       O147   2.483       .  S
Cd141       O146   2.484   1_455  S
Cd141       O145   2.525       .  S
Cd141       O143   2.404       .  S
Cd141      O1214   2.544   1_455  S
O142      Cd1213   2.543       .  S
C144        O148   1.266       .  A
C144        C956   1.485       .  S
O146       C1209   1.264       .  A
C149        C150   1.524       .  S
C149        C155   1.551       .  S
C149        C153   1.557       .  S
C149        C893   1.530       .  S
C150        H157   1.089       .  S
C150        C151   1.335       .  D
C151        C152   1.527       .  S
C151       C1016   1.469       .  S
C152        C156   1.547       .  S
C152        C154   1.540       .  S
C152        H158   1.080       .  S
C153        H159   1.083       .  S
C153        C154   1.383       .  D
C154        C166   1.511       .  S
C155        H160   1.082       .  S
C155        C156   1.369       .  D
C156        C263   1.507       .  S
C161        C162   1.556       .  S
C161        C167   1.534       .  S
C161        C165   1.546   1_554  S
C161        C881   1.536       .  S
C162        H169   1.078       .  S
C162        C163   1.373       .  D
C163        C164   1.546       .  S
C163        C256   1.513       .  S
C164        C168   1.520       .  S
C164        C166   1.556   1_554  S
C164        H170   1.090   1_554  S
C165        H171   1.084       .  S
C165        C166   1.373       .  D
C167        H172   1.088       .  S
C167        C168   1.344       .  D
C168        C992   1.467       .  S
C173        C174   1.560       .  S
C173        C179   1.544       .  S
C173        C177   1.562       .  S
C173        C872   1.541       .  S
C174        H181   1.078       .  S
C174        C175   1.368       .  D
C175        C176   1.532       .  S
C175        C292   1.513       .  S
C176        C180   1.528       .  S
C176        C178   1.542       .  S
C176        H182   1.050       .  S
C177        H183   1.084       .  S
C177        C178   1.381       .  D
C178        C190   1.522       .  S
C179        H184   1.087       .  S
C179        C180   1.343       .  D
C180       C1052   1.492       .  S
C185        C186   1.525       .  S
C185        C191   1.557       .  S
C185        C189   1.562       .  S
C185        C896   1.535       .  S
C186        H193   1.087       .  S
C186        C187   1.342       .  D
C187        C188   1.528       .  S
C187       C1028   1.468       .  S
C188        C192   1.536       .  S
C188        C190   1.554       .  S
C188        H194   1.080       .  S
C189        H195   1.083       .  S
C189        C190   1.382       .  D
C191        H196   1.082       .  S
C191        C192   1.366       .  D
C192        C275   1.517       .  S
O197        C200   1.271       .  A
O197       Cd202   2.500       .  S
C198        O207   1.265       .  A
C198        O203   1.269       .  A
O199        C205   1.269       .  A
O199       Cd202   2.522       .  S
C200        O208   1.264       .  A
C200        C213   1.474       .  S
C201        O206   1.271       .  A
C201        O204   1.265       .  A
C201        C884   1.479       .  S
Cd202       O209   2.407       .  S
Cd202       O208   2.463       .  S
Cd202       O207   2.476       .  S
Cd202       O203   2.534       .  S
Cd202       O206   2.503       .  S
Cd202       O204   2.392       .  S
C205        O209   1.264       .  A
C205        C449   1.469       .  S
O210        C213   1.270       .  A
O210       Cd215   2.487       .  S
C211        O220   1.266       .  A
C211        O216   1.268       .  A
O212        C218   1.270       .  A
O212       Cd215   2.537       .  S
C213        O221   1.265       .  A
C214        O219   1.266       .  A
C214        O217   1.270       .  A
C214        C869   1.489       .  S
Cd215       O222   2.403       .  S
Cd215       O221   2.476       .  S
Cd215       O220   2.496       .  S
Cd215       O216   2.539       .  S
Cd215       O219   2.436       .  S
Cd215       O217   2.526       .  S
C218        O222   1.261       .  A
C218        C466   1.469       .  S
O223        C226   1.271       .  A
O223       Cd228   2.497       .  S
C224        O233   1.266       .  A
C224        O229   1.269       .  A
O225        C231   1.270       .  A
O225       Cd228   2.522       .  S
C226        O234   1.263       .  A
C226        C239   1.471       .  S
C227        O232   1.266       .  A
C227        O230   1.271       .  A
C227        C857   1.480       .  S
Cd228       O235   2.396       .  S
Cd228       O234   2.452       .  S
Cd228       O233   2.485       .  S
Cd228       O229   2.534       .  S
Cd228       O232   2.400       .  S
Cd228       O230   2.508       .  S
C231        O235   1.262       .  A
C231        C575   1.465       .  S
O236        C239   1.270       .  A
O236       Cd241   2.479       .  S
C237        O246   1.265       .  A
C237        O242   1.268       .  A
O238        C244   1.269       .  A
O238       Cd241   2.522       .  S
C239        O247   1.265       .  A
C240        O245   1.269       .  A
C240        O243   1.266       .  A
C240        C845   1.490       .  S
Cd241       O248   2.410       .  S
Cd241       O247   2.475       .  S
Cd241       O246   2.490       .  S
Cd241       O242   2.545       .  S
Cd241       O245   2.526       .  S
Cd241       O243   2.451       .  S
C244        O248   1.261       .  A
C244        C588   1.467       .  S
C249        C250   1.524       .  S
C249        C255   1.549       .  S
C249        C253   1.567       .  S
C249        C833   1.530       .  S
C250        H257   1.088       .  S
C250        C251   1.337       .  D
C251        C252   1.521       .  S
C251        C932   1.466       .  S
C252        C256   1.538       .  S
C252        C254   1.558       .  S
C252        H258   1.084       .  S
C253        H259   1.082       .  S
C253        C254   1.383       .  D
C254        C266   1.522       .  S
C255        H260   1.084       .  S
C255        C256   1.370       .  D
C261        C262   1.559       .  S
C261        C267   1.540       .  S
C261        C265   1.564   1_556  S
C261        C848   1.544       .  S
C262        H269   1.078       .  S
C262        C263   1.370       .  D
C263        C264   1.528       .  S
C264        C268   1.533       .  S
C264        C266   1.534   1_556  S
C264        H270   1.062       .  S
C265        H271   1.084       .  S
C265        C266   1.380       .  D
C267        H272   1.084       .  S
C267        C268   1.347       .  D
C268        C908   1.496       .  S
C273        C274   1.555       .  S
C273        C279   1.532       .  S
C273        C277   1.547       .  S
C273        C860   1.535       .  S
C274        H281   1.079       .  S
C274        C275   1.375       .  D
C275        C276   1.549       .  S
C276        C280   1.533       .  S
C276        C278   1.550       .  S
C276        H282   1.088       .  S
C277        H283   1.084       .  S
C277        C278   1.375       .  D
C278        C290   1.505       .  S
C279        H284   1.088       .  S
C279        C280   1.339       .  D
C280        C941   1.484       .  S
C285        C286   1.526       .  S
C285        C291   1.556       .  S
C285        C289   1.548       .  S
C285        C836   1.534       .  S
C286        H293   1.087       .  S
C286        C287   1.352       .  D
C287        C288   1.529       .  S
C287        C965   1.487       .  S
C288        C292   1.544       .  S
C288        C290   1.537       .  S
C288        H294   1.065       .  S
C289        H295   1.084       .  S
C289        C290   1.373       .  D
C291        H296   1.077       .  S
C291        C292   1.370       .  D
O297        C300   1.270       .  A
O297       Cd302   2.539       .  S
C298        O307   1.264       .  A
C298        O303   1.271       .  A
C298        C313   1.474       .  S
O299        C305   1.270       .  A
O299       Cd302   2.500       .  S
C300        O308   1.265       .  A
C300        C446   1.484       .  S
C301        O306   1.269       .  A
C301        O304   1.263       .  A
Cd302       O309   2.420       .  S
Cd302       O308   2.478       .  S
Cd302       O307   2.469       .  S
Cd302       O303   2.503       .  S
Cd302       O306   2.525       .  S
Cd302       O304   2.411       .  S
C305        O309   1.266       .  A
C305        C821   1.482       .  S
O310        C313   1.270       .  A
O310       Cd315   2.490       .  S
C311        O316   1.268       .  A
C311       O1392   1.265       .  A
C311        C461   1.485       .  S
O312        C318   1.269       .  A
O312       Cd315   2.527       .  S
C313        O321   1.264       .  A
C314        O319   1.269       .  A
C314        O317   1.266       .  A
C314        C809   1.485       .  S
Cd315       O322   2.398       .  S
Cd315       O321   2.473       .  S
Cd315       O320   2.488   1_455  S
Cd315       O319   2.513       .  S
Cd315       O317   2.435       .  S
Cd315      O1388   2.540   1_455  S
O316      Cd1387   2.540       .  S
C318        O322   1.261       .  A
O320       C1383   1.265       .  A
C323        C324   1.519       .  S
C323        C329   1.546       .  S
C323        C327   1.568   1_545  S
C323        C800   1.526       .  S
C324        H331   1.089       .  S
C324        C325   1.328       .  D
C325        C326   1.534       .  S
C325       C1857   1.457   1_455  S
C326        C330   1.544       .  S
C326        C328   1.549   1_545  S
C326        H332   1.083       .  S
C327        H333   1.083       .  S
C327        C328   1.391       .  D
C328        C340   1.536       .  S
C329        H334   1.084       .  S
C329        C330   1.365       .  D
C330        C373   1.507       .  S
C335        C336   1.554       .  S
C335        C341   1.535       .  S
C335        C339   1.553       .  S
C335        C812   1.546       .  S
C336        H343   1.072       .  S
C336        C337   1.370       .  D
C337        C338   1.558       .  S
C337        C390   1.521   1_565  S
C338        C342   1.544       .  S
C338        C340   1.569       .  S
C338        H344   1.091   1_565  S
C339        H345   1.084       .  S
C339        C340   1.379       .  D
C341        H346   1.088       .  S
C341        C342   1.341       .  D
C342       C1848   1.493   1_455  S
C347        C348   1.524       .  S
C347        C353   1.563       .  S
C347        C351   1.548   1_545  S
C347        C797   1.528       .  S
C348        H355   1.086       .  S
C348        C349   1.338       .  D
C349        C350   1.534       .  S
C349        C764   1.475       .  S
C350        C354   1.537       .  S
C350        C352   1.555       .  S
C350        H356   1.080       .  S
C351        H357   1.084       .  S
C351        C352   1.372   1_565  D
C352        C364   1.513   1_545  S
C353        H358   1.078       .  S
C353        C354   1.373       .  D
C354        C397   1.520       .  S
C359        C360   1.564       .  S
C359        C365   1.544       .  S
C359        C363   1.557   1_554  S
C359        C824   1.538       .  S
C360        H367   1.074       .  S
C360        C361   1.373       .  D
C361        C362   1.531   1_554  S
C361        C414   1.517   1_565  S
C362        C366   1.525   1_556  S
C362        C364   1.531       .  S
C362        H368   1.048   1_565  S
C363        H369   1.084       .  S
C363        C364   1.377       .  D
C365        H370   1.087       .  S
C365        C366   1.341       .  D
C366        C749   1.482   1_554  S
C371        C372   1.560       .  S
C371        C377   1.544       .  S
C371        C375   1.558       .  S
C371        C740   1.539       .  S
C372        H379   1.073       .  S
C372        C373   1.372       .  D
C373        C374   1.527       .  S
C374        C378   1.514       .  S
C374        C376   1.538       .  S
C374        H380   1.063       .  S
C375        H381   1.085       .  S
C375        C376   1.378       .  D
C376        C388   1.508       .  S
C377        H382   1.087       .  S
C377        C378   1.342       .  D
C378       C1797   1.478   1_455  S
C383        C384   1.532       .  S
C383        C389   1.560       .  S
C383        C387   1.554       .  S
C383        C713   1.547       .  S
C384        H391   1.084       .  S
C384        C385   1.358       .  D
C385        C386   1.531       .  S
C385       C1773   1.498   1_455  S
C386        C390   1.526       .  S
C386        C388   1.540       .  S
C386        H392   1.054       .  S
C387        H393   1.085       .  S
C387        C388   1.373       .  D
C389        H394   1.071   1_545  S
C389        C390   1.373       .  D
C395        C396   1.555       .  S
C395        C401   1.534       .  S
C395        C399   1.556   1_556  S
C395        C692   1.545       .  S
C396        H403   1.077       .  S
C396        C397   1.372       .  D
C397        C398   1.550       .  S
C398        C402   1.536       .  S
C398        C400   1.557   1_556  S
C398        H404   1.087       .  S
C399        H405   1.084       .  S
C399        C400   1.381       .  D
C400        C412   1.520       .  S
C401        H406   1.088       .  S
C401        C402   1.342       .  D
C402        C677   1.492       .  S
C407        C408   1.530       .  S
C407        C413   1.548       .  S
C407        C411   1.569       .  S
C407        C716   1.547       .  S
C408        H415   1.087       .  S
C408        C409   1.353       .  D
C409        C410   1.528       .  S
C409        C668   1.490       .  S
C410        C414   1.547       .  S
C410        C412   1.538       .  S
C410        H416   1.063       .  S
C411        H417   1.075       .  S
C411        C412   1.382       .  D
C413        H418   1.084       .  S
C413        C414   1.365       .  D
O419        C422   1.271       .  A
O419       Cd424   2.478       .  S
C420        O429   1.266       .  A
C420        O425   1.269       .  A
C420        C583   1.486       .  S
O421        C427   1.271       .  A
O421       Cd424   2.527       .  S
C422        O430   1.265       .  A
C422        C435   1.471       .  S
C423        O428   1.270       .  A
C423        O426   1.266       .  A
C423        C689   1.485       .  S
Cd424       O431   2.397       .  S
Cd424       O430   2.466       .  S
Cd424       O429   2.490       .  S
Cd424       O425   2.533       .  S
Cd424       O428   2.514       .  S
Cd424       O426   2.436       .  S
C427        O431   1.261       .  A
O432        C435   1.270       .  A
O432       Cd437   2.493       .  S
C433        O438   1.269       .  A
C433       O1514   1.265       .  A
C433        C570   1.484       .  S
O434        C440   1.269       .  A
O434       Cd437   2.527       .  S
C435        O443   1.264       .  A
C436        O441   1.270       .  A
C436        O439   1.266       .  A
C436        C737   1.485       .  S
Cd437       O444   2.409       .  S
Cd437       O443   2.461       .  S
Cd437       O442   2.479   1_455  S
Cd437       O441   2.508       .  S
Cd437       O439   2.431       .  S
Cd437      O1510   2.539   1_455  S
O438      Cd1509   2.539       .  S
C440        O444   1.262       .  A
O442       C1505   1.265       .  A
O445        C448   1.270       .  A
O445       Cd450   2.473       .  S
C446        O455   1.266       .  A
C446        O451   1.268       .  A
O447        C453   1.271       .  A
O447       Cd450   2.539       .  S
C448        O456   1.265       .  A
C448        C459   1.470       .  S
C449        O454   1.271       .  A
C449        O452   1.261       .  A
Cd450       O457   2.442       .  S
Cd450       O456   2.470       .  S
Cd450       O455   2.483       .  S
Cd450       O451   2.532       .  S
Cd450       O454   2.534       .  S
Cd450       O452   2.405       .  S
C453        O457   1.266       .  A
C453        C653   1.494       .  S
O458        C461   1.269       .  A
O458       Cd463   2.538       .  S
C459        O468   1.264       .  A
C459        O464   1.271       .  A
O460        C466   1.269       .  A
O460       Cd463   2.530       .  S
C461        O469   1.265       .  A
C462        O467   1.271       .  A
C462        O465   1.266       .  A
C462        C641   1.482       .  S
Cd463       O470   2.406       .  S
Cd463       O469   2.481       .  S
Cd463       O468   2.449       .  S
Cd463       O464   2.496       .  S
Cd463       O467   2.496       .  S
Cd463       O465   2.418       .  S
C466        O470   1.263       .  A
C471        C472   1.549       .  S
C471        C477   1.527       .  S
C471        C475   1.565   1_545  S
C471        C629   1.543       .  S
C472        H479   1.081       .  S
C472        C473   1.359       .  D
C473        C474   1.544       .  S
C473        C524   1.512       .  S
C474        C478   1.529       .  S
C474        C476   1.544       .  S
C474        H480   1.062       .  S
C475        H481   1.084       .  S
C475        C476   1.385   1_565  D
C476        C485   1.522   1_545  S
C477        H482   1.087       .  S
C477        C478   1.355       .  D
C478        C761   1.493       .  S
C483        C484   1.562       .  S
C483        C489   1.530       .  S
C483        C487   1.556   1_556  S
C483        C656   1.548       .  S
C484        H491   1.084       .  S
C484        C485   1.384       .  D
C485        C486   1.556       .  S
C486        C490   1.530       .  S
C486        C488   1.548   1_556  S
C486        H492   1.087   1_565  S
C487        H493   1.077       .  S
C487        C488   1.373       .  D
C488        C533   1.519   1_565  S
C489        H494   1.088       .  S
C489        C490   1.337       .  D
C490        C752   1.482       .  S
C495        C496   1.550       .  S
C495        C501   1.523       .  S
C495        C499   1.556   1_545  S
C495        C632   1.537       .  S
C496        H503   1.082       .  S
C496        C497   1.371       .  D
C497        C498   1.539       .  S
C497        C548   1.510       .  S
C498        C502   1.539       .  S
C498        C500   1.557       .  S
C498        H504   1.082       .  S
C499        H505   1.083       .  S
C499        C500   1.381   1_565  D
C500        C509   1.524   1_545  S
C501        H506   1.088       .  S
C501        C502   1.344       .  D
C502        C788   1.482       .  S
C507        C508   1.556       .  S
C507        C513   1.537       .  S
C507        C511   1.555       .  S
C507        C644   1.537       .  S
C508        H515   1.083       .  S
C508        C509   1.380       .  D
C509        C510   1.549       .  S
C510        C514   1.545       .  S
C510        C512   1.538       .  S
C510        H516   1.066   1_565  S
C511        H517   1.079       .  S
C511        C512   1.368       .  D
C512        C557   1.511   1_565  S
C513        H518   1.088       .  S
C513        C514   1.341       .  D
C514        C773   1.494       .  S
C519        C520   1.555       .  S
C519        C525   1.546       .  S
C519        C523   1.559       .  S
C519        C617   1.536       .  S
C520        H527   1.084   1_556  S
C520        C521   1.375       .  D
C521        C522   1.533       .  S
C521        C536   1.511   1_556  S
C522        C526   1.528       .  S
C522        C524   1.527       .  S
C522        H528   1.048       .  S
C523        H529   1.073       .  S
C523        C524   1.373       .  D
C525        H530   1.087       .  S
C525        C526   1.344       .  D
C526        C680   1.490       .  S
C531        C532   1.560       .  S
C531        C537   1.524       .  S
C531        C535   1.550       .  S
C531        C605   1.525       .  S
C532        H539   1.079       .  S
C532        C533   1.370       .  D
C533        C534   1.538       .  S
C534        C538   1.530       .  S
C534        C536   1.553       .  S
C534        H540   1.081       .  S
C535        H541   1.084       .  S
C535        C536   1.374       .  D
C537        H542   1.088       .  S
C537        C538   1.335       .  D
C538        C665   1.467       .  S
C543        C544   1.557       .  S
C543        C549   1.539       .  S
C543        C547   1.555       .  S
C543        C593   1.544       .  S
C544        H551   1.085       .  S
C544        C545   1.379       .  D
C545        C546   1.554       .  S
C545        C560   1.519       .  S
C546        C550   1.521       .  S
C546        C548   1.541       .  S
C546        H552   1.086       .  S
C547        H553   1.071       .  S
C547        C548   1.371       .  D
C549        H554   1.087       .  S
C549        C550   1.341       .  D
C550        C728   1.479       .  S
C555        C556   1.544       .  S
C555        C561   1.525       .  S
C555        C559   1.566       .  S
C555        C608   1.522       .  S
C556        H563   1.083       .  S
C556        C557   1.365       .  D
C557        C558   1.541       .  S
C558        C562   1.539       .  S
C558        C560   1.538       .  S
C558        H564   1.065       .  S
C559        H565   1.083       .  S
C559        C560   1.381       .  D
C561        H566   1.083       .  S
C561        C562   1.338       .  D
C562        C704   1.487       .  S
O567        C570   1.268       .  A
O567       Cd572   2.542       .  S
C568        O577   1.265       .  A
C568        O573   1.270       .  A
C568        C581   1.472       .  S
O569        C575   1.269       .  A
O569       Cd572   2.524       .  S
C570        O578   1.264       .  A
C571        O576   1.269       .  A
C571        O574   1.266       .  A
C571        C596   1.484       .  S
Cd572       O579   2.398       .  S
Cd572       O578   2.478       .  S
Cd572       O577   2.478       .  S
Cd572       O573   2.482       .  S
Cd572       O576   2.511       .  S
Cd572       O574   2.440       .  S
C575        O579   1.261       .  A
O580        C583   1.269       .  A
O580       Cd585   2.535       .  S
C581        O590   1.264       .  A
C581        O586   1.271       .  A
O582        C588   1.269       .  A
O582       Cd585   2.516       .  S
C583        O591   1.265       .  A
C584        O589   1.270       .  A
C584        O587   1.266       .  A
C584        C620   1.484       .  S
Cd585       O592   2.410       .  S
Cd585       O591   2.491       .  S
Cd585       O590   2.451       .  S
Cd585       O586   2.498       .  S
Cd585       O589   2.503       .  S
Cd585       O587   2.422       .  S
C588        O592   1.263       .  A
C593        C594   1.415       .  A
C593        C598   1.416       .  A
C594        C595   1.408       .  A
C594        H599   1.085       .  S
C595        C596   1.412       .  A
C595        C602   1.443       .  S
C596        C597   1.402       .  A
C597        C598   1.400       .  A
C597        H600   1.085       .  S
C598        C601   1.441       .  S
C601        N603   1.158       .  T
C602        N604   1.157       .  T
C605        C606   1.403       .  A
C605        C610   1.425       .  A
C606        C607   1.386       .  A
C606        H611   1.077       .  S
C607        C608   1.424       .  A
C607        C614   1.449   1_545  S
C608        C609   1.405       .  A
C609        C610   1.403       .  A
C609        H612   1.081       .  S
C610        C613   1.445       .  S
C613        N615   1.157       .  T
C614        N616   1.158       .  T
C617        C618   1.414       .  A
C617        C622   1.413       .  A
C618        C619   1.406       .  A
C618        H623   1.085       .  S
C619        C620   1.412       .  A
C619        C626   1.442       .  S
C620        C621   1.404       .  A
C621        C622   1.398       .  A
C621        H624   1.085       .  S
C622        C625   1.441       .  S
C625        N627   1.158       .  T
C626        N628   1.157   1_556  T
C629        C630   1.410       .  A
C629        C634   1.419   1_545  A
C630        C631   1.390       .  A
C630        H635   1.080       .  S
C631        C632   1.422       .  A
C631        C638   1.448       .  S
C632        C633   1.413   1_545  A
C633        C634   1.413       .  A
C633        H636   1.082       .  S
C634        C637   1.442       .  S
C637        N639   1.157       .  T
C638        N640   1.158       .  T
C641        C642   1.400       .  A
C641        C646   1.411       .  A
C642        C643   1.405       .  A
C642        H647   1.085       .  S
C643        C644   1.424       .  A
C643        C650   1.442       .  S
C644        C645   1.412       .  A
C645        C646   1.398       .  A
C645        H648   1.078       .  S
C646        C649   1.446       .  S
C649        N651   1.158       .  T
C650        N652   1.157       .  T
C653        C654   1.404   1_554  A
C653        C658   1.412       .  A
C654        C655   1.412       .  A
C654        H659   1.084       .  S
C655        C656   1.425       .  A
C655        C662   1.443       .  S
C656        C657   1.412   1_556  A
C657        C658   1.402       .  A
C657        H660   1.078       .  S
C658        C661   1.446       .  S
C661        N663   1.157       .  T
C662        N664   1.157       .  T
C665        C666   1.383       .  A
C665        C670   1.411       .  A
C666        C667   1.378       .  A
C666        H671   1.082       .  S
C667        C668   1.410       .  A
C667        C674   1.420       .  S
C668        C669   1.411       .  A
C669        C670   1.397       .  A
C669        H672   1.084       .  S
C670        C673   1.444       .  S
C673        N675   1.157       .  T
C674        N676   1.153   1_554  T
C677        C678   1.405       .  A
C677        C682   1.414       .  A
C678        C679   1.407       .  A
C678        H683   1.085   1_556  S
C679        C680   1.410       .  A
C679        C686   1.441   1_556  S
C680        C681   1.404       .  A
C681        C682   1.407       .  A
C681        H684   1.084       .  S
C682        C685   1.443       .  S
C685        N687   1.157       .  T
C686        N688   1.156       .  T
C689        C690   1.401       .  A
C689        C694   1.410       .  A
C690        C691   1.406       .  A
C690        H695   1.085       .  S
C691        C692   1.424       .  A
C691        C698   1.443   1_556  S
C692        C693   1.412       .  A
C693        C694   1.402       .  A
C693        H696   1.078       .  S
C694        C697   1.445       .  S
C697        N699   1.157       .  T
C698       N1772   1.157       .  T
N700       C1770   1.157       .  T
C701       C1457   1.498       .  S
C701        C702   1.411       .  A
C701        C706   1.407       .  A
C702        C703   1.398       .  A
C702        H707   1.082       .  S
C703        C704   1.421       .  A
C703        C710   1.443       .  S
C704        C705   1.385       .  A
C705        C706   1.377       .  A
C705        H708   1.067       .  S
C706        C709   1.432       .  S
C709        N711   1.155       .  T
C710        N712   1.158       .  T
C713        C714   1.417       .  A
C713        C718   1.413       .  A
C714        C715   1.408       .  A
C714        H719   1.085       .  S
C715        C716   1.417       .  A
C715        C722   1.439       .  S
C716        C717   1.417       .  A
C717        C718   1.398       .  A
C717        H720   1.086       .  S
C718        C721   1.441       .  S
C721        N723   1.158   1_545  T
C722        N724   1.158       .  T
C725       C1450   1.477       .  S
C725        C726   1.402       .  A
C725        C730   1.408       .  A
C726        C727   1.400       .  A
C726        H731   1.085       .  S
C727        C728   1.408       .  A
C727        C734   1.442       .  S
C728        C729   1.403       .  A
C729        C730   1.402       .  A
C729        H732   1.085       .  S
C730        C733   1.442       .  S
C733        N735   1.157       .  T
C734        N736   1.157       .  T
C737        C738   1.404       .  A
C737        C742   1.411       .  A
C738        C739   1.400       .  A
C738        H743   1.085       .  S
C739        C740   1.414       .  A
C739        C746   1.441       .  S
C740        C741   1.415       .  A
C741        C742   1.407       .  A
C741        H744   1.085       .  S
C742        C745   1.443       .  S
C745        N747   1.157       .  T
C746        N748   1.158       .  T
C749        C750   1.402   1_556  A
C749        C754   1.411       .  A
C750        C751   1.402       .  A
C750        H755   1.084       .  S
C751        C752   1.412   1_554  A
C751        C758   1.443       .  S
C752        C753   1.404       .  A
C753        C754   1.405       .  A
C753        H756   1.085       .  S
C754        C757   1.442       .  S
C757        N759   1.157       .  T
C758        N760   1.157       .  T
C761        C762   1.412       .  A
C761        C766   1.411       .  A
C762        C763   1.399       .  A
C762        H767   1.084   1_545  S
C763        C764   1.412       .  A
C763        C770   1.443   1_545  S
C764        C765   1.384       .  A
C765        C766   1.379       .  A
C765        H768   1.080       .  S
C766        C769   1.422       .  S
C769        N771   1.153       .  T
C770        N772   1.157       .  T
C773        C774   1.406       .  A
C773        C778   1.416       .  A
C774        C775   1.410       .  A
C774        H779   1.084       .  S
C775        C776   1.413       .  A
C775        C782   1.442       .  S
C776       C1414   1.493       .  S
C776        C777   1.405       .  A
C777        C778   1.407       .  A
C777        H780   1.085       .  S
C778        C781   1.443       .  S
C781        N783   1.157       .  T
C782        N784   1.157       .  T
C785       C1397   1.456       .  S
C785        C786   1.375       .  A
C785        C790   1.413       .  A
C786        C787   1.371       .  A
C786        H791   1.088   1_545  S
C787        C788   1.397       .  A
C787        C794   1.392       .  S
C788        C789   1.409       .  A
C789        C790   1.404       .  A
C789        H792   1.084       .  S
C790        C793   1.442       .  S
C793        N795   1.157       .  T
C794        N796   1.140   1_545  T
C797        C798   1.400       .  A
C797        C802   1.427   1_545  A
C798        C799   1.386       .  A
C798        H803   1.077       .  S
C799        C800   1.427       .  A
C799        C806   1.449       .  S
C800        C801   1.404   1_545  A
C801        C802   1.407       .  A
C801        H804   1.082       .  S
C802        C805   1.444       .  S
C805       N1879   1.158       .  T
C806        N808   1.158       .  T
N807       C1877   1.158       .  T
C809        C810   1.402       .  A
C809        C814   1.411       .  A
C810        C811   1.400       .  A
C810        H815   1.085       .  S
C811        C812   1.416       .  A
C811        C818   1.441       .  S
C812        C813   1.417       .  A
C813        C814   1.409       .  A
C813        H816   1.085       .  S
C814        C817   1.443       .  S
C817        N819   1.157       .  T
C818        N820   1.157       .  T
C821        C822   1.403       .  A
C821        C826   1.411       .  A
C822        C823   1.399       .  A
C822        H827   1.085       .  S
C823        C824   1.413       .  A
C823        C830   1.440       .  S
C824        C825   1.416   1_554  A
C825        C826   1.406   1_556  A
C825        H828   1.085       .  S
C826        C829   1.444   1_554  S
C829        N831   1.157       .  T
C830        N832   1.158       .  T
C833        C834   1.402       .  A
C833        C838   1.426       .  A
C834        C835   1.403       .  A
C834        H839   1.080       .  S
C835        C836   1.426       .  A
C835        C842   1.445       .  S
C836        C837   1.401       .  A
C837        C838   1.393       .  A
C837        H840   1.077       .  S
C838        C841   1.449       .  S
C841        N843   1.158       .  T
C842        N844   1.157       .  T
C845        C846   1.403       .  A
C845        C850   1.411       .  A
C846        C847   1.408       .  A
C846        H851   1.084       .  S
C847        C848   1.424       .  A
C847        C854   1.443   1_556  S
C848        C849   1.410       .  A
C849        C850   1.402       .  A
C849        H852   1.078       .  S
C850        C853   1.445       .  S
C853        N855   1.157       .  T
C854        N856   1.157       .  T
C857        C858   1.400       .  A
C857        C862   1.411       .  A
C858        C859   1.405       .  A
C858        H863   1.085       .  S
C859        C860   1.426       .  A
C859        C866   1.444       .  S
C860        C861   1.408       .  A
C861        C862   1.398       .  A
C861        H864   1.079       .  S
C862        C865   1.446       .  S
C865        N867   1.157       .  T
C866        N868   1.158       .  T
C869        C870   1.405       .  A
C869        C874   1.412       .  A
C870        C871   1.409       .  A
C870        H875   1.084       .  S
C871        C872   1.421       .  A
C871        C878   1.443       .  S
C872        C873   1.410       .  A
C873        C874   1.399       .  A
C873        H876   1.078       .  S
C874        C877   1.445       .  S
C877        N879   1.157       .  T
C878        N880   1.157       .  T
C881        C882   1.409       .  A
C881        C886   1.425   1_554  A
C882        C883   1.397       .  A
C882        H887   1.078       .  S
C883        C884   1.411       .  A
C883        C890   1.446       .  S
C884        C885   1.399       .  A
C885        C886   1.404   1_554  A
C885        H888   1.085   1_554  S
C886        C889   1.443       .  S
C889        N891   1.157       .  T
C890        N892   1.157       .  T
C893        C894   1.414       .  A
C893        C898   1.422       .  A
C894        C895   1.411       .  A
C894        H899   1.083       .  S
C895        C896   1.419       .  A
C895        C902   1.442       .  S
C896        C897   1.409       .  A
C897        C898   1.388       .  A
C897        H900   1.081       .  S
C898        C901   1.447       .  S
C901        N903   1.158       .  T
C902        N904   1.158       .  T
C905        C906   1.419       .  A
C905        C910   1.417       .  A
C906        C907   1.405       .  A
C906        H911   1.081       .  S
C907        C908   1.414       .  A
C907        C914   1.444       .  S
C908        C909   1.389       .  A
C909        C910   1.379       .  A
C909        H912   1.069       .  S
C910        C913   1.437       .  S
C913        N915   1.157       .  T
C914        N916   1.158       .  T
C917        C918   1.409       .  A
C917        C922   1.424       .  A
C918        C919   1.398       .  A
C918        H923   1.078       .  S
C919        C920   1.411       .  A
C919        C926   1.446       .  S
C920        C921   1.400       .  A
C921        C922   1.404       .  A
C921        H924   1.085       .  S
C922        C925   1.444   1_556  S
C925        N927   1.157       .  T
C926        N928   1.157       .  T
C929        C930   1.403       .  A
C929        C934   1.416       .  A
C930        C931   1.395       .  A
C930        H935   1.085       .  S
C931        C932   1.399       .  A
C931        C938   1.439       .  S
C932        C933   1.397       .  A
C933        C934   1.393       .  A
C933        H936   1.085       .  S
C934        C937   1.444       .  S
C937        N939   1.158       .  T
C938        N940   1.156       .  T
C941        C942   1.403       .  A
C941        C946   1.411       .  A
C942        C943   1.404       .  A
C942        H947   1.084       .  S
C943        C944   1.412       .  A
C943        C950   1.444       .  S
C944       C1166   1.483       .  S
C944        C945   1.404       .  A
C945        C946   1.404       .  A
C945        H948   1.085       .  S
C946        C949   1.441       .  S
C949        N951   1.156       .  T
C950       N2024   1.157       .  T
N952       C2022   1.157   1_455  T
C953        C954   1.415       .  A
C953        C958   1.410       .  A
C954        C955   1.407       .  A
C954        H959   1.085       .  S
C955        C956   1.413       .  A
C955        C962   1.444       .  S
C956        C957   1.405       .  A
C957        C958   1.401       .  A
C957        H960   1.084       .  S
C958        C961   1.441       .  S
C961        N963   1.157       .  T
C962        N964   1.157       .  T
C965        C966   1.413       .  A
C965        C970   1.408       .  A
C966        C967   1.396       .  A
C966        H971   1.084       .  S
C967        C968   1.407       .  A
C967        C974   1.443       .  S
C968       C1154   1.465       .  S
C968        C969   1.385       .  A
C969        C970   1.377       .  A
C969        H972   1.079       .  S
C970        C973   1.424       .  S
C973        N975   1.154       .  T
C974       N2048   1.157       .  T
N976       C2046   1.157       .  T
C977        C978   1.407       .  A
C977        C982   1.419       .  A
C978        C979   1.386       .  A
C978        H983   1.080       .  S
C979        C980   1.423       .  A
C979        C986   1.447       .  S
C980        C981   1.411       .  A
C981        C982   1.407       .  A
C981        H984   1.083       .  S
C982        C985   1.443       .  S
C985       N2059   1.157       .  T
C986        N988   1.158       .  T
N987       C2057   1.157       .  T
C989        C990   1.393       .  A
C989        C994   1.402   1_556  A
C990        C991   1.393       .  A
C990        H995   1.080       .  S
C991        C992   1.409   1_556  A
C991        C998   1.443       .  S
C992        C993   1.404       .  A
C993        C994   1.400       .  A
C993        H996   1.084       .  S
C994        C997   1.441       .  S
C997        N999   1.156       .  T
C998       N1000   1.157       .  T
C1001      C1002   1.415       .  A
C1001      C1006   1.418   1_556  A
C1002      C1003   1.410       .  A
C1002      H1007   1.085       .  S
C1003      C1004   1.414   1_556  A
C1003      C1010   1.443       .  S
C1004      C1005   1.403       .  A
C1005      C1006   1.402       .  A
C1005      H1008   1.085       .  S
C1006      C1009   1.442       .  S
C1009      N1011   1.158       .  T
C1010      N1012   1.157       .  T
C1013      C1014   1.401       .  A
C1013      C1018   1.402       .  A
C1014      C1015   1.399       .  A
C1014      H1019   1.085       .  S
C1015      C1016   1.407       .  A
C1015      C1022   1.444       .  S
C1016      C1017   1.399       .  A
C1017      C1018   1.395       .  A
C1017      H1020   1.079       .  S
C1018      C1021   1.443       .  S
C1021      N1023   1.157       .  T
C1022      N1024   1.157       .  T
C1025      C1092   1.487       .  S
C1025      C1026   1.413       .  A
C1025      C1030   1.405       .  A
C1026      C1027   1.399       .  A
C1026      H1031   1.084       .  S
C1027      C1028   1.408       .  A
C1027      C1034   1.443       .  S
C1028      C1029   1.387       .  A
C1029      C1030   1.379       .  A
C1029      H1032   1.079       .  S
C1030      C1033   1.422       .  S
C1033      N2107   1.153       .  T
C1034      N1036   1.157       .  T
N1035      C2105   1.153       .  T
C1037      C1038   1.403       .  A
C1037      C1042   1.425       .  A
C1038      C1039   1.405       .  A
C1038      H1043   1.081       .  S
C1039      C1040   1.426       .  A
C1039      C1046   1.445       .  S
C1040      C1041   1.402       .  A
C1041      C1042   1.393       .  A
C1041      H1044   1.076       .  S
C1042      C1045   1.448       .  S
C1045      N1047   1.157       .  T
C1046      N1048   1.157       .  T
C1049      C1080   1.492       .  S
C1049      C1050   1.404       .  A
C1049      C1054   1.411       .  A
C1050      C1051   1.408       .  A
C1050      H1055   1.084       .  S
C1051      C1052   1.414       .  A
C1051      C1058   1.444       .  S
C1052      C1053   1.405       .  A
C1053      C1054   1.407       .  A
C1053      H1056   1.085       .  S
C1054      C1057   1.442       .  S
C1057      N2131   1.157       .  T
C1058      N1060   1.157       .  T
N1059      C2129   1.157       .  T
C1061      C1062   1.402       .  A
C1061      C1066   1.410       .  A
C1062      C1063   1.398       .  A
C1062      H1067   1.085       .  S
C1063      C1064   1.417       .  A
C1063      C1070   1.441       .  S
C1064      C1065   1.415       .  A
C1065      C1066   1.407       .  A
C1065      H1068   1.085       .  S
C1066      C1069   1.442       .  S
C1069      N1071   1.157       .  T
C1070      N2144   1.158       .  T
N1072      C2142   1.158       .  T
C1073      C1074   1.549       .  S
C1073      C1079   1.539       .  S
C1073      C1077   1.550       .  S
C1073      C2136   1.541       .  S
C1074      H1081   1.084       .  S
C1074      C1075   1.377       .  D
C1075      C1076   1.551       .  S
C1075      C1090   1.510       .  S
C1076      C1080   1.536       .  S
C1076      C1078   1.547       .  S
C1076      H1082   1.089       .  S
C1077      H1083   1.070       .  S
C1077      C1078   1.371       .  D
C1078      C1149   1.514       .  S
C1079      H1084   1.087       .  S
C1079      C1080   1.345       .  D
C1085      C1086   1.559       .  S
C1085      C1091   1.526       .  S
C1085      C1089   1.550       .  S
C1085      C2112   1.536       .  S
C1086      H1093   1.078       .  S
C1086      C1087   1.370       .  D
C1087      C1088   1.551       .  S
C1087      C1164   1.521       .  S
C1088      C1092   1.531       .  S
C1088      C1090   1.540       .  S
C1088      H1094   1.068       .  S
C1089      H1095   1.084       .  S
C1089      C1090   1.374       .  D
C1091      H1096   1.087       .  S
C1091      C1092   1.350       .  D
C1097      C1098   1.554       .  S
C1097      C1103   1.529       .  S
C1097      C1101   1.568       .  S
C1097      C2109   1.531       .  S
C1098      H1105   1.084       .  S
C1098      C1099   1.371       .  D
C1099      C1100   1.533       .  S
C1099      C1188   1.512       .  S
C1100      C1104   1.517       .  S
C1100      C1102   1.547       .  S
C1100      H1106   1.068       .  S
C1101      H1107   1.082       .  S
C1101      C1102   1.383       .  D
C1102      C1111   1.520       .  S
C1103      H1108   1.088       .  S
C1103      C1104   1.337       .  D
C1104      C2085   1.465       .  S
C1109      C1110   1.563       .  S
C1109      C1115   1.539       .  S
C1109      C1113   1.557   1_556  S
C1109      C2073   1.548       .  S
C1110      H1117   1.085       .  S
C1110      C1111   1.384       .  D
C1111      C1112   1.546       .  S
C1112      C1116   1.514       .  S
C1112      C1114   1.532   1_556  S
C1112      H1118   1.076       .  S
C1113      H1119   1.071       .  S
C1113      C1114   1.369       .  D
C1114      C1173   1.508       .  S
C1115      H1120   1.087       .  S
C1115      C1116   1.340       .  D
C1116      C2061   1.463       .  S
O1121      C1124   1.269       .  A
O1121     Cd1126   2.487       .  S
C1122      O1131   1.265       .  A
C1122      O1127   1.268       .  A
C1122      C1270   1.483       .  S
O1123      C1129   1.269       .  A
O1123     Cd1126   2.524       .  S
C1124      O1132   1.266       .  A
C1124      C1137   1.477       .  S
C1125      O1130   1.270       .  A
C1125      O1128   1.260       .  A
C1125      C1373   1.469       .  S
Cd1126     O1133   2.456       .  S
Cd1126     O1132   2.491       .  S
Cd1126     O1131   2.480       .  S
Cd1126     O1127   2.537       .  S
Cd1126     O1130   2.536       .  S
Cd1126     O1128   2.406       .  S
C1129      O1133   1.267       .  A
C1129      C2076   1.491       .  S
O1134      C1137   1.271       .  A
O1134     Cd1139   2.509       .  S
C1135      O1140   1.269       .  A
C1135      C1283   1.487       .  S
O1136      C1142   1.270       .  A
O1136     Cd1139   2.511       .  S
C1137      O1145   1.265       .  A
C1138      O1143   1.269       .  A
C1138      O1141   1.262       .  A
C1138      C1390   1.466       .  S
Cd1139     O1146   2.415       .  S
Cd1139     O1145   2.465       .  S
Cd1139     O1144   2.493       .  S
Cd1139     O1143   2.528       .  S
Cd1139     O1141   2.399       .  S
C1142      O1146   1.266       .  A
C1142      C2133   1.483       .  S
C1147      C1148   1.555       .  S
C1147      C1153   1.522       .  S
C1147      C1151   1.558       .  S
C1147      C2049   1.529       .  S
C1148      H1155   1.081       .  S
C1148      C1149   1.367       .  D
C1149      C1150   1.533       .  S
C1150      C1154   1.527       .  S
C1150      C1152   1.552       .  S
C1150      H1156   1.080       .  S
C1151      H1157   1.083       .  S
C1151      C1152   1.380       .  D
C1152      C1161   1.516       .  S
C1153      H1158   1.087       .  S
C1153      C1154   1.340       .  D
C1159      C1160   1.557       .  S
C1159      C1165   1.544       .  S
C1159      C1163   1.566       .  S
C1159      C2025   1.541       .  S
C1160      H1167   1.085       .  S
C1160      C1161   1.377       .  D
C1161      C1162   1.538       .  S
C1162      C1166   1.526       .  S
C1162      C1164   1.531       .  S
C1162      H1168   1.051       .  S
C1163      H1169   1.076       .  S
C1163      C1164   1.375       .  D
C1165      H1170   1.087       .  S
C1165      C1166   1.340       .  D
C1171      C1172   1.547       .  S
C1171      C1177   1.523       .  S
C1171      C1175   1.555       .  S
C1171      C2052   1.523       .  S
C1172      H1179   1.082       .  S
C1172      C1173   1.368       .  D
C1173      C1174   1.542       .  S
C1174      C1178   1.524       .  S
C1174      C1176   1.553       .  S
C1174      H1180   1.084       .  S
C1175      H1181   1.084       .  S
C1175      C1176   1.381       .  D
C1176      C1185   1.507   1_554  S
C1177      H1182   1.088       .  S
C1177      C1178   1.335       .  D
C1178      C2001   1.474       .  S
C1183      C1184   1.550       .  S
C1183      C1189   1.537       .  S
C1183      C1187   1.552       .  S
C1183      C1989   1.538       .  S
C1184      H1191   1.084   1_556  S
C1184      C1185   1.373       .  D
C1185      C1186   1.540       .  S
C1186      C1190   1.533       .  S
C1186      C1188   1.544       .  S
C1186      H1192   1.056       .  S
C1187      H1193   1.078       .  S
C1187      C1188   1.366       .  D
C1189      H1194   1.084       .  S
C1189      C1190   1.359       .  D
C1190      C1977   1.510       .  S
O1195      C1198   1.269       .  A
O1195     Cd1200   2.550       .  S
C1196      O1205   1.263       .  A
C1196      O1201   1.272       .  A
C1196      C1211   1.474       .  S
O1197      C1203   1.268       .  A
O1197     Cd1200   2.522       .  S
C1198      O1206   1.265       .  A
C1198      C1309   1.488       .  S
C1199      O1204   1.270       .  A
C1199      O1202   1.266       .  A
C1199      C1992   1.480       .  S
Cd1200     O1207   2.408       .  S
Cd1200     O1206   2.487       .  S
Cd1200     O1205   2.455       .  S
Cd1200     O1201   2.511       .  S
Cd1200     O1204   2.505       .  S
Cd1200     O1202   2.413       .  S
C1203      O1207   1.263       .  A
C1203      C1499   1.467       .  S
O1208      C1211   1.270       .  A
O1208     Cd1213   2.481       .  S
C1209      O1214   1.269       .  A
C1209      C1296   1.486       .  S
O1210      C1216   1.269       .  A
O1210     Cd1213   2.503       .  S
C1211      O1219   1.265       .  A
C1212      O1217   1.269       .  A
C1212      O1215   1.261       .  A
C1212      C1512   1.467       .  S
Cd1213     O1220   2.451       .  S
Cd1213     O1219   2.483       .  S
Cd1213     O1218   2.484       .  S
Cd1213     O1217   2.524       .  S
Cd1213     O1215   2.405       .  S
C1216      O1220   1.266       .  A
C1216      C2028   1.485       .  S
C1221      C1222   1.524       .  S
C1221      C1227   1.551       .  S
C1221      C1225   1.557       .  S
C1221      C1965   1.529       .  S
C1222      H1229   1.089       .  S
C1222      C1223   1.334       .  D
C1223      C1224   1.527       .  S
C1223      C2088   1.469       .  S
C1224      C1228   1.547       .  S
C1224      C1226   1.541       .  S
C1224      H1230   1.080       .  S
C1225      H1231   1.083       .  S
C1225      C1226   1.383       .  D
C1226      C1238   1.511       .  S
C1227      H1232   1.082       .  S
C1227      C1228   1.369       .  D
C1228      C1335   1.507       .  S
C1233      C1234   1.555       .  S
C1233      C1239   1.534       .  S
C1233      C1237   1.547   1_554  S
C1233      C1953   1.536       .  S
C1234      H1241   1.078       .  S
C1234      C1235   1.373       .  D
C1235      C1236   1.546       .  S
C1235      C1328   1.513       .  S
C1236      C1240   1.519       .  S
C1236      C1238   1.556   1_554  S
C1236      H1242   1.090   1_554  S
C1237      H1243   1.084       .  S
C1237      C1238   1.374       .  D
C1239      H1244   1.088       .  S
C1239      C1240   1.344       .  D
C1240      C2064   1.467       .  S
C1245      C1246   1.560       .  S
C1245      C1251   1.544       .  S
C1245      C1249   1.562       .  S
C1245      C1944   1.541       .  S
C1246      H1253   1.078       .  S
C1246      C1247   1.368       .  D
C1247      C1248   1.533       .  S
C1247      C1364   1.513       .  S
C1248      C1252   1.528       .  S
C1248      C1250   1.542       .  S
C1248      H1254   1.050       .  S
C1249      H1255   1.084       .  S
C1249      C1250   1.381       .  D
C1250      C1262   1.523       .  S
C1251      H1256   1.087       .  S
C1251      C1252   1.343       .  D
C1252      C2124   1.492       .  S
C1257      C1258   1.525       .  S
C1257      C1263   1.557       .  S
C1257      C1261   1.562       .  S
C1257      C1968   1.535       .  S
C1258      H1265   1.087       .  S
C1258      C1259   1.342       .  D
C1259      C1260   1.528       .  S
C1259      C2100   1.468       .  S
C1260      C1264   1.536       .  S
C1260      C1262   1.554       .  S
C1260      H1266   1.080       .  S
C1261      H1267   1.083       .  S
C1261      C1262   1.382       .  D
C1263      H1268   1.082       .  S
C1263      C1264   1.366       .  D
C1264      C1347   1.517       .  S
O1269      C1272   1.271       .  A
O1269     Cd1274   2.499       .  S
C1270      O1279   1.265       .  A
C1270      O1275   1.269       .  A
O1271      C1277   1.269       .  A
O1271     Cd1274   2.522       .  S
C1272      O1280   1.264       .  A
C1272      C1285   1.474       .  S
C1273      O1278   1.271       .  A
C1273      O1276   1.265       .  A
C1273      C1956   1.479       .  S
Cd1274     O1281   2.406       .  S
Cd1274     O1280   2.463       .  S
Cd1274     O1279   2.476       .  S
Cd1274     O1275   2.534       .  S
Cd1274     O1278   2.502       .  S
Cd1274     O1276   2.393       .  S
C1277      O1281   1.264       .  A
C1277      C1521   1.469       .  S
O1282      C1285   1.270       .  A
O1282     Cd1287   2.488       .  S
C1283      O1292   1.266       .  A
C1283      O1288   1.268       .  A
O1284      C1290   1.270       .  A
O1284     Cd1287   2.537       .  S
C1285      O1293   1.265       .  A
C1286      O1291   1.266       .  A
C1286      O1289   1.270       .  A
C1286      C1941   1.489       .  S
Cd1287     O1294   2.403       .  S
Cd1287     O1293   2.475       .  S
Cd1287     O1292   2.496       .  S
Cd1287     O1288   2.540       .  S
Cd1287     O1291   2.437       .  S
Cd1287     O1289   2.525       .  S
C1290      O1294   1.261       .  A
C1290      C1538   1.469       .  S
O1295      C1298   1.271       .  A
O1295     Cd1300   2.497       .  S
C1296      O1305   1.266       .  A
C1296      O1301   1.269       .  A
O1297      C1303   1.270       .  A
O1297     Cd1300   2.521       .  S
C1298      O1306   1.263       .  A
C1298      C1311   1.471       .  S
C1299      O1304   1.266       .  A
C1299      O1302   1.271       .  A
C1299      C1929   1.480       .  S
Cd1300     O1307   2.396       .  S
Cd1300     O1306   2.452       .  S
Cd1300     O1305   2.486       .  S
Cd1300     O1301   2.535       .  S
Cd1300     O1304   2.400       .  S
Cd1300     O1302   2.509       .  S
C1303      O1307   1.262       .  A
C1303      C1647   1.465       .  S
O1308      C1311   1.270       .  A
O1308     Cd1313   2.479       .  S
C1309      O1318   1.265       .  A
C1309      O1314   1.268       .  A
O1310      C1316   1.269       .  A
O1310     Cd1313   2.523       .  S
C1311      O1319   1.265       .  A
C1312      O1317   1.269       .  A
C1312      O1315   1.266       .  A
C1312      C1917   1.490       .  S
Cd1313     O1320   2.411       .  S
Cd1313     O1319   2.476       .  S
Cd1313     O1318   2.489       .  S
Cd1313     O1314   2.546       .  S
Cd1313     O1317   2.526       .  S
Cd1313     O1315   2.451       .  S
C1316      O1320   1.261       .  A
C1316      C1660   1.467       .  S
C1321      C1322   1.524       .  S
C1321      C1327   1.549       .  S
C1321      C1325   1.567       .  S
C1321      C1905   1.530       .  S
C1322      H1329   1.088       .  S
C1322      C1323   1.337       .  D
C1323      C1324   1.521       .  S
C1323      C2004   1.466       .  S
C1324      C1328   1.537       .  S
C1324      C1326   1.557       .  S
C1324      H1330   1.084       .  S
C1325      H1331   1.082       .  S
C1325      C1326   1.383       .  D
C1326      C1338   1.522       .  S
C1327      H1332   1.084       .  S
C1327      C1328   1.370       .  D
C1333      C1334   1.559       .  S
C1333      C1339   1.540       .  S
C1333      C1337   1.564   1_556  S
C1333      C1920   1.543       .  S
C1334      H1341   1.078       .  S
C1334      C1335   1.370       .  D
C1335      C1336   1.528       .  S
C1336      C1340   1.533       .  S
C1336      C1338   1.534   1_556  S
C1336      H1342   1.062       .  S
C1337      H1343   1.084       .  S
C1337      C1338   1.380       .  D
C1339      H1344   1.084       .  S
C1339      C1340   1.347       .  D
C1340      C1980   1.496       .  S
C1345      C1346   1.555       .  S
C1345      C1351   1.532       .  S
C1345      C1349   1.547       .  S
C1345      C1932   1.535       .  S
C1346      H1353   1.079       .  S
C1346      C1347   1.375       .  D
C1347      C1348   1.549       .  S
C1348      C1352   1.533       .  S
C1348      C1350   1.550       .  S
C1348      H1354   1.088       .  S
C1349      H1355   1.084       .  S
C1349      C1350   1.375       .  D
C1350      C1362   1.505       .  S
C1351      H1356   1.088       .  S
C1351      C1352   1.339       .  D
C1352      C2013   1.485       .  S
C1357      C1358   1.526       .  S
C1357      C1363   1.556       .  S
C1357      C1361   1.548       .  S
C1357      C1908   1.534       .  S
C1358      H1365   1.087       .  S
C1358      C1359   1.352       .  D
C1359      C1360   1.529       .  S
C1359      C2037   1.487       .  S
C1360      C1364   1.544       .  S
C1360      C1362   1.536       .  S
C1360      H1366   1.065       .  S
C1361      H1367   1.084       .  S
C1361      C1362   1.373       .  D
C1363      H1368   1.077       .  S
C1363      C1364   1.370       .  D
O1369      C1372   1.270       .  A
O1369     Cd1374   2.539       .  S
C1370      O1379   1.264       .  A
C1370      O1375   1.271       .  A
C1370      C1385   1.475       .  S
O1371      C1377   1.270       .  A
O1371     Cd1374   2.500       .  S
C1372      O1380   1.265       .  A
C1372      C1518   1.484       .  S
C1373      O1378   1.269       .  A
C1373      O1376   1.263       .  A
Cd1374     O1381   2.420       .  S
Cd1374     O1380   2.480       .  S
Cd1374     O1379   2.469       .  S
Cd1374     O1375   2.504       .  S
Cd1374     O1378   2.525       .  S
Cd1374     O1376   2.411       .  S
C1377      O1381   1.266       .  A
C1377      C1893   1.482       .  S
O1382      C1385   1.270       .  A
O1382     Cd1387   2.490       .  S
C1383      O1388   1.268       .  A
C1383      C1533   1.485       .  S
O1384      C1390   1.269       .  A
O1384     Cd1387   2.527       .  S
C1385      O1393   1.264       .  A
C1386      O1391   1.269       .  A
C1386      O1389   1.266       .  A
C1386      C1881   1.484       .  S
Cd1387     O1394   2.397       .  S
Cd1387     O1393   2.474       .  S
Cd1387     O1392   2.488       .  S
Cd1387     O1391   2.512       .  S
Cd1387     O1389   2.434       .  S
C1390      O1394   1.261       .  A
C1395      C1396   1.519       .  S
C1395      C1401   1.547       .  S
C1395      C1399   1.568   1_545  S
C1395      C1872   1.526       .  S
C1396      H1403   1.089       .  S
C1396      C1397   1.328       .  D
C1397      C1398   1.534       .  S
C1398      C1402   1.544       .  S
C1398      C1400   1.549   1_545  S
C1398      H1404   1.082       .  S
C1399      H1405   1.083       .  S
C1399      C1400   1.391       .  D
C1400      C1412   1.535       .  S
C1401      H1406   1.084       .  S
C1401      C1402   1.366       .  D
C1402      C1445   1.507       .  S
C1407      C1408   1.554       .  S
C1407      C1413   1.535       .  S
C1407      C1411   1.552       .  S
C1407      C1884   1.545       .  S
C1408      H1415   1.072       .  S
C1408      C1409   1.370       .  D
C1409      C1410   1.558       .  S
C1409      C1462   1.522   1_565  S
C1410      C1414   1.544       .  S
C1410      C1412   1.569       .  S
C1410      H1416   1.090   1_565  S
C1411      H1417   1.084       .  S
C1411      C1412   1.379       .  D
C1413      H1418   1.088       .  S
C1413      C1414   1.341       .  D
C1419      C1420   1.524       .  S
C1419      C1425   1.563       .  S
C1419      C1423   1.548   1_545  S
C1419      C1869   1.529       .  S
C1420      H1427   1.086       .  S
C1420      C1421   1.338       .  D
C1421      C1422   1.533       .  S
C1421      C1836   1.474       .  S
C1422      C1426   1.537       .  S
C1422      C1424   1.555       .  S
C1422      H1428   1.081       .  S
C1423      H1429   1.084       .  S
C1423      C1424   1.372   1_565  D
C1424      C1436   1.513   1_545  S
C1425      H1430   1.078       .  S
C1425      C1426   1.373       .  D
C1426      C1469   1.520       .  S
C1431      C1432   1.564       .  S
C1431      C1437   1.544       .  S
C1431      C1435   1.557   1_554  S
C1431      C1896   1.538       .  S
C1432      H1439   1.074       .  S
C1432      C1433   1.373       .  D
C1433      C1434   1.530   1_554  S
C1433      C1486   1.517   1_565  S
C1434      C1438   1.524   1_556  S
C1434      C1436   1.531       .  S
C1434      H1440   1.048   1_565  S
C1435      H1441   1.084       .  S
C1435      C1436   1.377       .  D
C1437      H1442   1.087       .  S
C1437      C1438   1.341       .  D
C1438      C1821   1.482   1_554  S
C1443      C1444   1.560       .  S
C1443      C1449   1.544       .  S
C1443      C1447   1.558       .  S
C1443      C1812   1.539       .  S
C1444      H1451   1.073       .  S
C1444      C1445   1.372       .  D
C1445      C1446   1.527       .  S
C1446      C1450   1.514       .  S
C1446      C1448   1.538       .  S
C1446      H1452   1.059       .  S
C1447      H1453   1.085       .  S
C1447      C1448   1.377       .  D
C1448      C1460   1.508       .  S
C1449      H1454   1.087       .  S
C1449      C1450   1.342       .  D
C1455      C1456   1.532       .  S
C1455      C1461   1.560       .  S
C1455      C1459   1.554       .  S
C1455      C1785   1.547       .  S
C1456      H1463   1.084       .  S
C1456      C1457   1.358       .  D
C1457      C1458   1.532       .  S
C1458      C1462   1.527       .  S
C1458      C1460   1.540       .  S
C1458      H1464   1.050       .  S
C1459      H1465   1.085       .  S
C1459      C1460   1.373       .  D
C1461      H1466   1.071   1_545  S
C1461      C1462   1.373       .  D
C1467      C1468   1.556       .  S
C1467      C1473   1.534       .  S
C1467      C1471   1.556   1_556  S
C1467      C1764   1.544       .  S
C1468      H1475   1.077       .  S
C1468      C1469   1.372       .  D
C1469      C1470   1.550       .  S
C1470      C1474   1.536       .  S
C1470      C1472   1.557   1_556  S
C1470      H1476   1.087       .  S
C1471      H1477   1.084       .  S
C1471      C1472   1.380       .  D
C1472      C1484   1.520       .  S
C1473      H1478   1.088       .  S
C1473      C1474   1.341       .  D
C1474      C1749   1.492       .  S
C1479      C1480   1.530       .  S
C1479      C1485   1.548       .  S
C1479      C1483   1.569       .  S
C1479      C1788   1.546       .  S
C1480      H1487   1.087       .  S
C1480      C1481   1.353       .  D
C1481      C1482   1.528       .  S
C1481      C1740   1.490       .  S
C1482      C1486   1.547       .  S
C1482      C1484   1.537       .  S
C1482      H1488   1.063       .  S
C1483      H1489   1.075       .  S
C1483      C1484   1.382       .  D
C1485      H1490   1.084       .  S
C1485      C1486   1.365       .  D
O1491      C1494   1.271       .  A
O1491     Cd1496   2.478       .  S
C1492      O1501   1.265       .  A
C1492      O1497   1.269       .  A
C1492      C1655   1.486       .  S
O1493      C1499   1.271       .  A
O1493     Cd1496   2.528       .  S
C1494      O1502   1.265       .  A
C1494      C1507   1.471       .  S
C1495      O1500   1.270       .  A
C1495      O1498   1.266       .  A
C1495      C1761   1.485       .  S
Cd1496     O1503   2.397       .  S
Cd1496     O1502   2.466       .  S
Cd1496     O1501   2.490       .  S
Cd1496     O1497   2.533       .  S
Cd1496     O1500   2.514       .  S
Cd1496     O1498   2.436       .  S
C1499      O1503   1.261       .  A
O1504      C1507   1.270       .  A
O1504     Cd1509   2.492       .  S
C1505      O1510   1.269       .  A
C1505      C1642   1.484       .  S
O1506      C1512   1.269       .  A
O1506     Cd1509   2.526       .  S
C1507      O1515   1.264       .  A
C1508      O1513   1.270       .  A
C1508      O1511   1.266       .  A
C1508      C1809   1.485       .  S
Cd1509     O1516   2.409       .  S
Cd1509     O1515   2.461       .  S
Cd1509     O1514   2.478       .  S
Cd1509     O1513   2.509       .  S
Cd1509     O1511   2.431       .  S
C1512      O1516   1.262       .  A
O1517      C1520   1.270       .  A
O1517     Cd1522   2.473       .  S
C1518      O1527   1.266       .  A
C1518      O1523   1.268       .  A
O1519      C1525   1.271       .  A
O1519     Cd1522   2.539       .  S
C1520      O1528   1.265       .  A
C1520      C1531   1.470       .  S
C1521      O1526   1.271       .  A
C1521      O1524   1.261       .  A
Cd1522     O1529   2.441       .  S
Cd1522     O1528   2.470       .  S
Cd1522     O1527   2.484       .  S
Cd1522     O1523   2.531       .  S
Cd1522     O1526   2.533       .  S
Cd1522     O1524   2.405       .  S
C1525      O1529   1.266       .  A
C1525      C1725   1.494       .  S
O1530      C1533   1.269       .  A
O1530     Cd1535   2.538       .  S
C1531      O1540   1.263       .  A
C1531      O1536   1.271       .  A
O1532      C1538   1.269       .  A
O1532     Cd1535   2.530       .  S
C1533      O1541   1.265       .  A
C1534      O1539   1.271       .  A
C1534      O1537   1.266       .  A
C1534      C1713   1.482       .  S
Cd1535     O1542   2.406       .  S
Cd1535     O1541   2.482       .  S
Cd1535     O1540   2.449       .  S
Cd1535     O1536   2.496       .  S
Cd1535     O1539   2.497       .  S
Cd1535     O1537   2.419       .  S
C1538      O1542   1.263       .  A
C1543      C1544   1.550       .  S
C1543      C1549   1.527       .  S
C1543      C1547   1.565   1_545  S
C1543      C1701   1.543       .  S
C1544      H1551   1.081       .  S
C1544      C1545   1.359       .  D
C1545      C1546   1.545       .  S
C1545      C1596   1.512       .  S
C1546      C1550   1.529       .  S
C1546      C1548   1.544       .  S
C1546      H1552   1.062       .  S
C1547      H1553   1.084       .  S
C1547      C1548   1.385   1_565  D
C1548      C1557   1.522   1_545  S
C1549      H1554   1.087       .  S
C1549      C1550   1.355       .  D
C1550      C1833   1.493       .  S
C1555      C1556   1.562       .  S
C1555      C1561   1.530       .  S
C1555      C1559   1.556   1_556  S
C1555      C1728   1.548       .  S
C1556      H1563   1.084       .  S
C1556      C1557   1.384       .  D
C1557      C1558   1.556       .  S
C1558      C1562   1.530       .  S
C1558      C1560   1.548   1_556  S
C1558      H1564   1.087   1_565  S
C1559      H1565   1.077       .  S
C1559      C1560   1.372       .  D
C1560      C1605   1.519   1_565  S
C1561      H1566   1.088       .  S
C1561      C1562   1.337       .  D
C1562      C1824   1.482       .  S
C1567      C1568   1.549       .  S
C1567      C1573   1.523       .  S
C1567      C1571   1.555   1_545  S
C1567      C1704   1.537       .  S
C1568      H1575   1.082       .  S
C1568      C1569   1.371       .  D
C1569      C1570   1.539       .  S
C1569      C1620   1.510       .  S
C1570      C1574   1.539       .  S
C1570      C1572   1.558       .  S
C1570      H1576   1.082       .  S
C1571      H1577   1.083       .  S
C1571      C1572   1.381   1_565  D
C1572      C1581   1.524   1_545  S
C1573      H1578   1.088       .  S
C1573      C1574   1.344       .  D
C1574      C1860   1.483       .  S
C1579      C1580   1.556       .  S
C1579      C1585   1.537       .  S
C1579      C1583   1.555       .  S
C1579      C1716   1.537       .  S
C1580      H1587   1.083       .  S
C1580      C1581   1.380       .  D
C1581      C1582   1.549       .  S
C1582      C1586   1.545       .  S
C1582      C1584   1.537       .  S
C1582      H1588   1.066   1_565  S
C1583      H1589   1.079       .  S
C1583      C1584   1.368       .  D
C1584      C1629   1.511   1_565  S
C1585      H1590   1.088       .  S
C1585      C1586   1.341       .  D
C1586      C1845   1.494       .  S
C1591      C1592   1.555       .  S
C1591      C1597   1.546       .  S
C1591      C1595   1.559       .  S
C1591      C1689   1.536       .  S
C1592      H1599   1.084   1_556  S
C1592      C1593   1.375       .  D
C1593      C1594   1.534       .  S
C1593      C1608   1.511   1_556  S
C1594      C1598   1.528       .  S
C1594      C1596   1.527       .  S
C1594      H1600   1.048       .  S
C1595      H1601   1.073       .  S
C1595      C1596   1.373       .  D
C1597      H1602   1.087       .  S
C1597      C1598   1.344       .  D
C1598      C1752   1.490       .  S
C1603      C1604   1.559       .  S
C1603      C1609   1.524       .  S
C1603      C1607   1.550       .  S
C1603      C1677   1.525       .  S
C1604      H1611   1.079       .  S
C1604      C1605   1.370       .  D
C1605      C1606   1.538       .  S
C1606      C1610   1.530       .  S
C1606      C1608   1.553       .  S
C1606      H1612   1.080       .  S
C1607      H1613   1.084       .  S
C1607      C1608   1.375       .  D
C1609      H1614   1.088       .  S
C1609      C1610   1.335       .  D
C1610      C1737   1.467       .  S
C1615      C1616   1.557       .  S
C1615      C1621   1.539       .  S
C1615      C1619   1.555       .  S
C1615      C1665   1.544       .  S
C1616      H1623   1.085       .  S
C1616      C1617   1.379       .  D
C1617      C1618   1.554       .  S
C1617      C1632   1.519       .  S
C1618      C1622   1.522       .  S
C1618      C1620   1.541       .  S
C1618      H1624   1.086       .  S
C1619      H1625   1.072       .  S
C1619      C1620   1.371       .  D
C1621      H1626   1.087       .  S
C1621      C1622   1.342       .  D
C1622      C1800   1.479       .  S
C1627      C1628   1.544       .  S
C1627      C1633   1.525       .  S
C1627      C1631   1.566       .  S
C1627      C1680   1.522       .  S
C1628      H1635   1.083       .  S
C1628      C1629   1.365       .  D
C1629      C1630   1.541       .  S
C1630      C1634   1.539       .  S
C1630      C1632   1.538       .  S
C1630      H1636   1.065       .  S
C1631      H1637   1.083       .  S
C1631      C1632   1.381       .  D
C1633      H1638   1.083       .  S
C1633      C1634   1.338       .  D
C1634      C1776   1.487       .  S
O1639      C1642   1.268       .  A
O1639     Cd1644   2.542       .  S
C1640      O1649   1.265       .  A
C1640      O1645   1.270       .  A
C1640      C1653   1.472       .  S
O1641      C1647   1.269       .  A
O1641     Cd1644   2.523       .  S
C1642      O1650   1.264       .  A
C1643      O1648   1.269       .  A
C1643      O1646   1.266       .  A
C1643      C1668   1.484       .  S
Cd1644     O1651   2.398       .  S
Cd1644     O1650   2.480       .  S
Cd1644     O1649   2.478       .  S
Cd1644     O1645   2.482       .  S
Cd1644     O1648   2.511       .  S
Cd1644     O1646   2.440       .  S
C1647      O1651   1.261       .  A
O1652      C1655   1.269       .  A
O1652     Cd1657   2.535       .  S
C1653      O1662   1.264       .  A
C1653      O1658   1.271       .  A
O1654      C1660   1.269       .  A
O1654     Cd1657   2.517       .  S
C1655      O1663   1.265       .  A
C1656      O1661   1.270       .  A
C1656      O1659   1.266       .  A
C1656      C1692   1.484       .  S
Cd1657     O1664   2.409       .  S
Cd1657     O1663   2.491       .  S
Cd1657     O1662   2.452       .  S
Cd1657     O1658   2.498       .  S
Cd1657     O1661   2.502       .  S
Cd1657     O1659   2.422       .  S
C1660      O1664   1.263       .  A
C1665      C1666   1.415       .  A
C1665      C1670   1.416       .  A
C1666      C1667   1.407       .  A
C1666      H1671   1.085       .  S
C1667      C1668   1.412       .  A
C1667      C1674   1.443       .  S
C1668      C1669   1.402       .  A
C1669      C1670   1.400       .  A
C1669      H1672   1.085       .  S
C1670      C1673   1.441       .  S
C1673      N1675   1.158       .  T
C1674      N1676   1.157       .  T
C1677      C1678   1.404       .  A
C1677      C1682   1.425       .  A
C1678      C1679   1.386       .  A
C1678      H1683   1.077       .  S
C1679      C1680   1.424       .  A
C1679      C1686   1.449   1_545  S
C1680      C1681   1.405       .  A
C1681      C1682   1.403       .  A
C1681      H1684   1.081       .  S
C1682      C1685   1.445       .  S
C1685      N1687   1.157       .  T
C1686      N1688   1.158       .  T
C1689      C1690   1.414       .  A
C1689      C1694   1.413       .  A
C1690      C1691   1.406       .  A
C1690      H1695   1.085       .  S
C1691      C1692   1.412       .  A
C1691      C1698   1.442       .  S
C1692      C1693   1.404       .  A
C1693      C1694   1.398       .  A
C1693      H1696   1.085       .  S
C1694      C1697   1.441       .  S
C1697      N1699   1.158       .  T
C1698      N1700   1.157   1_556  T
C1701      C1702   1.410       .  A
C1701      C1706   1.419   1_545  A
C1702      C1703   1.390       .  A
C1702      H1707   1.080       .  S
C1703      C1704   1.422       .  A
C1703      C1710   1.448       .  S
C1704      C1705   1.413   1_545  A
C1705      C1706   1.413       .  A
C1705      H1708   1.082       .  S
C1706      C1709   1.442       .  S
C1709      N1711   1.157       .  T
C1710      N1712   1.158       .  T
C1713      C1714   1.400       .  A
C1713      C1718   1.411       .  A
C1714      C1715   1.405       .  A
C1714      H1719   1.085       .  S
C1715      C1716   1.424       .  A
C1715      C1722   1.442       .  S
C1716      C1717   1.412       .  A
C1717      C1718   1.398       .  A
C1717      H1720   1.078       .  S
C1718      C1721   1.446       .  S
C1721      N1723   1.158       .  T
C1722      N1724   1.157       .  T
C1725      C1726   1.404   1_554  A
C1725      C1730   1.412       .  A
C1726      C1727   1.412       .  A
C1726      H1731   1.084       .  S
C1727      C1728   1.425       .  A
C1727      C1734   1.443       .  S
C1728      C1729   1.412   1_556  A
C1729      C1730   1.402       .  A
C1729      H1732   1.078       .  S
C1730      C1733   1.446       .  S
C1733      N1735   1.157       .  T
C1734      N1736   1.157       .  T
C1737      C1738   1.383       .  A
C1737      C1742   1.411       .  A
C1738      C1739   1.377       .  A
C1738      H1743   1.082       .  S
C1739      C1740   1.410       .  A
C1739      C1746   1.420       .  S
C1740      C1741   1.411       .  A
C1741      C1742   1.397       .  A
C1741      H1744   1.084       .  S
C1742      C1745   1.444       .  S
C1745      N1747   1.157       .  T
C1746      N1748   1.153   1_554  T
C1749      C1750   1.405       .  A
C1749      C1754   1.414       .  A
C1750      C1751   1.407       .  A
C1750      H1755   1.085   1_556  S
C1751      C1752   1.411       .  A
C1751      C1758   1.441   1_556  S
C1752      C1753   1.404       .  A
C1753      C1754   1.407       .  A
C1753      H1756   1.084       .  S
C1754      C1757   1.443       .  S
C1757      N1759   1.157       .  T
C1758      N1760   1.156       .  T
C1761      C1762   1.401       .  A
C1761      C1766   1.410       .  A
C1762      C1763   1.406       .  A
C1762      H1767   1.085       .  S
C1763      C1764   1.424       .  A
C1763      C1770   1.443   1_556  S
C1764      C1765   1.412       .  A
C1765      C1766   1.402       .  A
C1765      H1768   1.078       .  S
C1766      C1769   1.445       .  S
C1769      N1771   1.157       .  T
C1773      C1774   1.411       .  A
C1773      C1778   1.407       .  A
C1774      C1775   1.399       .  A
C1774      H1779   1.082       .  S
C1775      C1776   1.421       .  A
C1775      C1782   1.443       .  S
C1776      C1777   1.385       .  A
C1777      C1778   1.377       .  A
C1777      H1780   1.067       .  S
C1778      C1781   1.432       .  S
C1781      N1783   1.155       .  T
C1782      N1784   1.158       .  T
C1785      C1786   1.417       .  A
C1785      C1790   1.413       .  A
C1786      C1787   1.408       .  A
C1786      H1791   1.085       .  S
C1787      C1788   1.417       .  A
C1787      C1794   1.439       .  S
C1788      C1789   1.417       .  A
C1789      C1790   1.398       .  A
C1789      H1792   1.086       .  S
C1790      C1793   1.441       .  S
C1793      N1795   1.158   1_545  T
C1794      N1796   1.158       .  T
C1797      C1798   1.402       .  A
C1797      C1802   1.408       .  A
C1798      C1799   1.400       .  A
C1798      H1803   1.085       .  S
C1799      C1800   1.408       .  A
C1799      C1806   1.442       .  S
C1800      C1801   1.403       .  A
C1801      C1802   1.402       .  A
C1801      H1804   1.085       .  S
C1802      C1805   1.442       .  S
C1805      N1807   1.157       .  T
C1806      N1808   1.157       .  T
C1809      C1810   1.404       .  A
C1809      C1814   1.411       .  A
C1810      C1811   1.400       .  A
C1810      H1815   1.085       .  S
C1811      C1812   1.414       .  A
C1811      C1818   1.441       .  S
C1812      C1813   1.415       .  A
C1813      C1814   1.407       .  A
C1813      H1816   1.085       .  S
C1814      C1817   1.443       .  S
C1817      N1819   1.157       .  T
C1818      N1820   1.158       .  T
C1821      C1822   1.402   1_556  A
C1821      C1826   1.411       .  A
C1822      C1823   1.402       .  A
C1822      H1827   1.084       .  S
C1823      C1824   1.412   1_554  A
C1823      C1830   1.444       .  S
C1824      C1825   1.404       .  A
C1825      C1826   1.405       .  A
C1825      H1828   1.085       .  S
C1826      C1829   1.442       .  S
C1829      N1831   1.157       .  T
C1830      N1832   1.157       .  T
C1833      C1834   1.412       .  A
C1833      C1838   1.411       .  A
C1834      C1835   1.399       .  A
C1834      H1839   1.084   1_545  S
C1835      C1836   1.412       .  A
C1835      C1842   1.443   1_545  S
C1836      C1837   1.384       .  A
C1837      C1838   1.379       .  A
C1837      H1840   1.080       .  S
C1838      C1841   1.422       .  S
C1841      N1843   1.153       .  T
C1842      N1844   1.157       .  T
C1845      C1846   1.406       .  A
C1845      C1850   1.416       .  A
C1846      C1847   1.410       .  A
C1846      H1851   1.084       .  S
C1847      C1848   1.413       .  A
C1847      C1854   1.442       .  S
C1848      C1849   1.405       .  A
C1849      C1850   1.407       .  A
C1849      H1852   1.085       .  S
C1850      C1853   1.443       .  S
C1853      N1855   1.157       .  T
C1854      N1856   1.157   1_655  T
C1857      C1858   1.375       .  A
C1857      C1862   1.413       .  A
C1858      C1859   1.371       .  A
C1858      H1863   1.088   1_545  S
C1859      C1860   1.397       .  A
C1859      C1866   1.391       .  S
C1860      C1861   1.409       .  A
C1861      C1862   1.404       .  A
C1861      H1864   1.084       .  S
C1862      C1865   1.442       .  S
C1865      N1867   1.157       .  T
C1866      N1868   1.140   1_545  T
C1869      C1870   1.401       .  A
C1869      C1874   1.427   1_545  A
C1870      C1871   1.387       .  A
C1870      H1875   1.077       .  S
C1871      C1872   1.427       .  A
C1871      C1878   1.449       .  S
C1872      C1873   1.404   1_545  A
C1873      C1874   1.407       .  A
C1873      H1876   1.082       .  S
C1874      C1877   1.444       .  S
C1878      N1880   1.158       .  T
C1881      C1882   1.402       .  A
C1881      C1886   1.411       .  A
C1882      C1883   1.399       .  A
C1882      H1887   1.085       .  S
C1883      C1884   1.416       .  A
C1883      C1890   1.441       .  S
C1884      C1885   1.417       .  A
C1885      C1886   1.409       .  A
C1885      H1888   1.085       .  S
C1886      C1889   1.443       .  S
C1889      N1891   1.157       .  T
C1890      N1892   1.157       .  T
C1893      C1894   1.403       .  A
C1893      C1898   1.411       .  A
C1894      C1895   1.399       .  A
C1894      H1899   1.085       .  S
C1895      C1896   1.412       .  A
C1895      C1902   1.440       .  S
C1896      C1897   1.416   1_554  A
C1897      C1898   1.406   1_556  A
C1897      H1900   1.085       .  S
C1898      C1901   1.444   1_554  S
C1901      N1903   1.157       .  T
C1902      N1904   1.158       .  T
C1905      C1906   1.402       .  A
C1905      C1910   1.427       .  A
C1906      C1907   1.403       .  A
C1906      H1911   1.080       .  S
C1907      C1908   1.426       .  A
C1907      C1914   1.445       .  S
C1908      C1909   1.401       .  A
C1909      C1910   1.393       .  A
C1909      H1912   1.077       .  S
C1910      C1913   1.449       .  S
C1913      N1915   1.158       .  T
C1914      N1916   1.157       .  T
C1917      C1918   1.403       .  A
C1917      C1922   1.411       .  A
C1918      C1919   1.408       .  A
C1918      H1923   1.084       .  S
C1919      C1920   1.424       .  A
C1919      C1926   1.443   1_556  S
C1920      C1921   1.410       .  A
C1921      C1922   1.402       .  A
C1921      H1924   1.079       .  S
C1922      C1925   1.445       .  S
C1925      N1927   1.157       .  T
C1926      N1928   1.157       .  T
C1929      C1930   1.400       .  A
C1929      C1934   1.411       .  A
C1930      C1931   1.406       .  A
C1930      H1935   1.085       .  S
C1931      C1932   1.426       .  A
C1931      C1938   1.444       .  S
C1932      C1933   1.408       .  A
C1933      C1934   1.397       .  A
C1933      H1936   1.079       .  S
C1934      C1937   1.446       .  S
C1937      N1939   1.157       .  T
C1938      N1940   1.158       .  T
C1941      C1942   1.405       .  A
C1941      C1946   1.412       .  A
C1942      C1943   1.409       .  A
C1942      H1947   1.084       .  S
C1943      C1944   1.421       .  A
C1943      C1950   1.443       .  S
C1944      C1945   1.410       .  A
C1945      C1946   1.399       .  A
C1945      H1948   1.078       .  S
C1946      C1949   1.445       .  S
C1949      N1951   1.157       .  T
C1950      N1952   1.157       .  T
C1953      C1954   1.409       .  A
C1953      C1958   1.425   1_554  A
C1954      C1955   1.397       .  A
C1954      H1959   1.078       .  S
C1955      C1956   1.410       .  A
C1955      C1962   1.446       .  S
C1956      C1957   1.399       .  A
C1957      C1958   1.404   1_554  A
C1957      H1960   1.085   1_554  S
C1958      C1961   1.443       .  S
C1961      N1963   1.157       .  T
C1962      N1964   1.157       .  T
C1965      C1966   1.414       .  A
C1965      C1970   1.422       .  A
C1966      C1967   1.411       .  A
C1966      H1971   1.083       .  S
C1967      C1968   1.419       .  A
C1967      C1974   1.442       .  S
C1968      C1969   1.409       .  A
C1969      C1970   1.388       .  A
C1969      H1972   1.081       .  S
C1970      C1973   1.447       .  S
C1973      N1975   1.158       .  T
C1974      N1976   1.158       .  T
C1977      C1978   1.420       .  A
C1977      C1982   1.417       .  A
C1978      C1979   1.405       .  A
C1978      H1983   1.081       .  S
C1979      C1980   1.414       .  A
C1979      C1986   1.444       .  S
C1980      C1981   1.389       .  A
C1981      C1982   1.379       .  A
C1981      H1984   1.069       .  S
C1982      C1985   1.437       .  S
C1985      N1987   1.157       .  T
C1986      N1988   1.158       .  T
C1989      C1990   1.409       .  A
C1989      C1994   1.424       .  A
C1990      C1991   1.398       .  A
C1990      H1995   1.078       .  S
C1991      C1992   1.411       .  A
C1991      C1998   1.446       .  S
C1992      C1993   1.400       .  A
C1993      C1994   1.404       .  A
C1993      H1996   1.085       .  S
C1994      C1997   1.444   1_556  S
C1997      N1999   1.157       .  T
C1998      N2000   1.157       .  T
C2001      C2002   1.403       .  A
C2001      C2006   1.416       .  A
C2002      C2003   1.395       .  A
C2002      H2007   1.085       .  S
C2003      C2004   1.400       .  A
C2003      C2010   1.439       .  S
C2004      C2005   1.397       .  A
C2005      C2006   1.393       .  A
C2005      H2008   1.085       .  S
C2006      C2009   1.444       .  S
C2009      N2011   1.158       .  T
C2010      N2012   1.156       .  T
C2013      C2014   1.403       .  A
C2013      C2018   1.411       .  A
C2014      C2015   1.405       .  A
C2014      H2019   1.084       .  S
C2015      C2016   1.412       .  A
C2015      C2022   1.444       .  S
C2016      C2017   1.404       .  A
C2017      C2018   1.404       .  A
C2017      H2020   1.085       .  S
C2018      C2021   1.441       .  S
C2021      N2023   1.156       .  T
C2025      C2026   1.415       .  A
C2025      C2030   1.410       .  A
C2026      C2027   1.407       .  A
C2026      H2031   1.085       .  S
C2027      C2028   1.413       .  A
C2027      C2034   1.444       .  S
C2028      C2029   1.405       .  A
C2029      C2030   1.402       .  A
C2029      H2032   1.084       .  S
C2030      C2033   1.441       .  S
C2033      N2035   1.157       .  T
C2034      N2036   1.157       .  T
C2037      C2038   1.413       .  A
C2037      C2042   1.408       .  A
C2038      C2039   1.396       .  A
C2038      H2043   1.084       .  S
C2039      C2040   1.407       .  A
C2039      C2046   1.443       .  S
C2040      C2041   1.385       .  A
C2041      C2042   1.377       .  A
C2041      H2044   1.079       .  S
C2042      C2045   1.424       .  S
C2045      N2047   1.154       .  T
C2049      C2050   1.407       .  A
C2049      C2054   1.419       .  A
C2050      C2051   1.386       .  A
C2050      H2055   1.080       .  S
C2051      C2052   1.424       .  A
C2051      C2058   1.447       .  S
C2052      C2053   1.411       .  A
C2053      C2054   1.407       .  A
C2053      H2056   1.083       .  S
C2054      C2057   1.443       .  S
C2058      N2060   1.158       .  T
C2061      C2062   1.393       .  A
C2061      C2066   1.402   1_556  A
C2062      C2063   1.393       .  A
C2062      H2067   1.080       .  S
C2063      C2064   1.408   1_556  A
C2063      C2070   1.443       .  S
C2064      C2065   1.403       .  A
C2065      C2066   1.400       .  A
C2065      H2068   1.084       .  S
C2066      C2069   1.441       .  S
C2069      N2071   1.156       .  T
C2070      N2072   1.157       .  T
C2073      C2074   1.415       .  A
C2073      C2078   1.418   1_556  A
C2074      C2075   1.410       .  A
C2074      H2079   1.085       .  S
C2075      C2076   1.414   1_556  A
C2075      C2082   1.443       .  S
C2076      C2077   1.403       .  A
C2077      C2078   1.402       .  A
C2077      H2080   1.085       .  S
C2078      C2081   1.442       .  S
C2081      N2083   1.158       .  T
C2082      N2084   1.157       .  T
C2085      C2086   1.401       .  A
C2085      C2090   1.402       .  A
C2086      C2087   1.399       .  A
C2086      H2091   1.085       .  S
C2087      C2088   1.407       .  A
C2087      C2094   1.444       .  S
C2088      C2089   1.399       .  A
C2089      C2090   1.395       .  A
C2089      H2092   1.079       .  S
C2090      C2093   1.443       .  S
C2093      N2095   1.157       .  T
C2094      N2096   1.157       .  T
C2097      C2098   1.413       .  A
C2097      C2102   1.405       .  A
C2098      C2099   1.399       .  A
C2098      H2103   1.084       .  S
C2099      C2100   1.408       .  A
C2099      C2106   1.443       .  S
C2100      C2101   1.387       .  A
C2101      C2102   1.379       .  A
C2101      H2104   1.079       .  S
C2102      C2105   1.422       .  S
C2106      N2108   1.157       .  T
C2109      C2110   1.403       .  A
C2109      C2114   1.425       .  A
C2110      C2111   1.405       .  A
C2110      H2115   1.081       .  S
C2111      C2112   1.427       .  A
C2111      C2118   1.445       .  S
C2112      C2113   1.402       .  A
C2113      C2114   1.393       .  A
C2113      H2116   1.076       .  S
C2114      C2117   1.448       .  S
C2117      N2119   1.157       .  T
C2118      N2120   1.157       .  T
C2121      C2122   1.405       .  A
C2121      C2126   1.411       .  A
C2122      C2123   1.408       .  A
C2122      H2127   1.084       .  S
C2123      C2124   1.414       .  A
C2123      C2130   1.444       .  S
C2124      C2125   1.405       .  A
C2125      C2126   1.407       .  A
C2125      H2128   1.085       .  S
C2126      C2129   1.442       .  S
C2130      N2132   1.157       .  T
C2133      C2134   1.402       .  A
C2133      C2138   1.410       .  A
C2134      C2135   1.397       .  A
C2134      H2139   1.085       .  S
C2135      C2136   1.417       .  A
C2135      C2142   1.441       .  S
C2136      C2137   1.416       .  A
C2137      C2138   1.407       .  A
C2137      H2140   1.085       .  S
C2138      C2141   1.442       .  S
C2141      N2143   1.157       .  T
