geometry optimzed in LAMMPS
_audit_creation_date              2020-11-30 
_audit_creation_method            'lammps2cif' 
_symmetry_space_group_name_H-M    'P1' 
_symmetry_Int_Tables_number       1 
_symmetry_cell_setting            triclinic 
loop_ 
_symmetry_equiv_pos_as_xyz 
  x,y,z 
_cell_length_a                    47.939793973067445 
_cell_length_b                    47.94512233142707 
_cell_length_c                    47.94556573045708 
_cell_angle_alpha                 90.01926750432727 
_cell_angle_beta                  90.02068374203245 
_cell_angle_gamma                 90.01664027513812 
loop_ 
_atom_site_label 
_atom_site_type_symbol 
_atom_site_fract_x 
_atom_site_fract_y 
_atom_site_fract_z 
_atom_site_charge 
C1          C  0.71102673  0.71098652  0.74673729     0.04610
C2          C  0.69912472  0.73484181  0.73472461    -0.11540
C3          C  0.71103503  0.74687737  0.71088621     0.02110
C4          C  0.73502369  0.73499959  0.69912229    -0.10070
C5          C  0.74701647  0.71112023  0.71099027     0.04600
C6          C  0.73501180  0.69922520  0.73484924    -0.09490
H7          H  0.67952661  0.74281052  0.74269625     0.10190
H8          H  0.74310343  0.74307274  0.67961330     0.07720
H9          H  0.74308476  0.67970415  0.74290214     0.07570
C10         C  0.23918619  0.71136083  0.20344402     0.04610
C11         C  0.25079538  0.73534699  0.21550943    -0.11540
C12         C  0.23871951  0.74720889  0.23935633     0.02110
C13         C  0.21483000  0.73505196  0.25104519    -0.10070
C14         C  0.20311383  0.71105636  0.23910734     0.04600
C15         C  0.21531054  0.69930936  0.21526896    -0.09490
H16         H  0.27033146  0.74353476  0.20760140     0.10190
H17         H  0.20662720  0.74300683  0.27055478     0.07720
H18         H  0.20746357  0.67970718  0.20716628     0.07570
C19         C  0.74688460  0.23957242  0.71132588     0.04610
C20         C  0.73519361  0.21554641  0.69942057    -0.11540
C21         C  0.71132403  0.20337138  0.71113460     0.02110
C22         C  0.69925128  0.21523425  0.73498000    -0.10070
C23         C  0.71082272  0.23925532  0.74700639     0.04600
C24         C  0.73466844  0.25133859  0.73514817    -0.09490
H25         H  0.74339955  0.20757779  0.67991812     0.10190
H26         H  0.67973381  0.20702283  0.74291045     0.07720
H27         H  0.74248916  0.27096118  0.74322589     0.07570
C28         C  0.23922739  0.20356781  0.71127677     0.04610
C29         C  0.21536781  0.21543961  0.69923561    -0.11540
C30         C  0.20318318  0.23926351  0.71102647     0.02110
C31         C  0.21490312  0.25114722  0.73504636    -0.10070
C32         C  0.23878452  0.23941927  0.74718362     0.04600
C33         C  0.25084033  0.21557947  0.73528732    -0.09490
H34         H  0.20751809  0.20737847  0.67961733     0.10190
H35         H  0.20671461  0.27065017  0.74303368     0.07720
H36         H  0.27036910  0.20764049  0.74346562     0.07570
C37         C  0.20350713  0.71142974  0.71123395     0.04610
C38         C  0.21550358  0.73534669  0.69943814    -0.11540
C39         C  0.23938171  0.74731990  0.71136624     0.02110
C40         C  0.25118020  0.73534374  0.73529006    -0.10070
C41         C  0.23931979  0.71141256  0.74718804     0.04600
C42         C  0.21544313  0.69955456  0.73514295    -0.09490
H43         H  0.20750729  0.74339573  0.67988145     0.10190
H44         H  0.27071118  0.74338223  0.74338270     0.07720
H45         H  0.20739936  0.67999311  0.74313132     0.07570
C46         C  0.74679607  0.23919933  0.23919399     0.04610
C47         C  0.73482457  0.25107933  0.21530400    -0.11540
C48         C  0.71090882  0.23924641  0.20330971     0.02110
C49         C  0.69904337  0.21533234  0.21524491    -0.10070
C50         C  0.71088184  0.20334464  0.23914722     0.04600
C51         C  0.73479939  0.21529626  0.25101946    -0.09490
H52         H  0.74287525  0.27062859  0.20729277     0.10190
H53         H  0.67948955  0.20731026  0.20719245     0.07720
H54         H  0.74282914  0.20724357  0.27056101     0.07570
O55         O  0.44562059  0.50533624  0.19473031    -0.71470
O56         O  0.50501266  0.44570593  0.19468907    -0.72450
O57         O  0.50513927  0.50521477  0.19466359    -0.61070
O58         O  0.44549004  0.44581734  0.19475376    -0.69480
O59         O  0.44577863  0.44613890  0.14838347    -0.69030
O60         O  0.50471085  0.50482271  0.14829377    -0.60280
O61         O  0.50458882  0.44602574  0.14831985    -0.72790
O62         O  0.44590437  0.50494524  0.14836077    -0.71570
Cu63       Cu  0.47531723  0.47551973  0.19644116     1.04560
Cu64       Cu  0.47524259  0.47548190  0.14679315     1.04330
C65         C  0.43654444  0.51440206  0.17137591     0.94730
C66         C  0.51402481  0.43661138  0.17132161     0.93870
C67         C  0.51418673  0.51423675  0.17128643     0.86020
C68         C  0.43637547  0.43675412  0.17140534     0.92290
N69         N  0.35208637  0.35282407  0.12756020    -0.25810
N70         N  0.34528955  0.34585447  0.15332539    -0.33670
C71         C  0.36060545  0.36107165  0.17131085     0.02530
C72         C  0.37772709  0.37831140  0.15586348     0.08550
C73         C  0.37187184  0.37262490  0.12830372    -0.04550
H74         H  0.35933991  0.35965159  0.19379144     0.09220
H75         H  0.38125992  0.38213028  0.11012594     0.10420
Cu76       Cu  0.31544564  0.31590585  0.16162227     0.44170
Cu77       Cu  0.33405955  0.33499107  0.09278471     0.41990
Cu78       Cu  0.28095477  0.28186040  0.10201787     0.43880
N79         N  0.28507830  0.28548879  0.16494400    -0.33200
N80         N  0.27238020  0.27298813  0.14382114    -0.27450
C81         C  0.25387735  0.25444606  0.15413338    -0.03550
C82         C  0.25522709  0.25553766  0.18294179     0.08660
C83         C  0.27511582  0.27533891  0.18903216     0.02460
H84         H  0.24051426  0.24123630  0.14163916     0.10110
H85         H  0.28187175  0.28194278  0.20952772     0.09190
N86         N  0.29471986  0.29583019  0.06310681    -0.34650
N87         N  0.31412372  0.31523921  0.06012873    -0.26830
C88         C  0.31856611  0.31981735  0.03284478    -0.02070
C89         C  0.30116347  0.30249935  0.01791966     0.06540
C90         C  0.28628688  0.28752969  0.03758098     0.04640
H91         H  0.33339326  0.33467468  0.02455247     0.09740
H92         H  0.27056343  0.27182808  0.03367213     0.08580
N93         N  0.35265800  0.59866878  0.12753078    -0.25810
N94         N  0.34575425  0.60555198  0.15329420    -0.33670
C95         C  0.36098080  0.59026563  0.17128125     0.02530
C96         C  0.37815694  0.57307495  0.15583477     0.08550
C97         C  0.37242275  0.57885993  0.12827551    -0.04550
H98         H  0.35960752  0.59159399  0.19376183     0.09220
H99         H  0.38186821  0.56940462  0.11009781     0.10420
Cu100      Cu  0.31585847  0.63545491  0.16157097     0.44170
Cu101      Cu  0.33477708  0.61659508  0.09275165     0.41990
Cu102      Cu  0.28161922  0.66964135  0.10190762     0.43880
N103        N  0.28540559  0.66578796  0.16484884    -0.33200
N104        N  0.27281008  0.67834284  0.14370838    -0.27450
C105        C  0.25419109  0.69677893  0.15399688    -0.03550
C106        C  0.25535017  0.69555890  0.18280824     0.08660
C107        C  0.27525200  0.67579224  0.18892411     0.02460
H108        H  0.24085834  0.70998578  0.14148392     0.10110
H109        H  0.28187821  0.66910407  0.20942891     0.09190
N110        N  0.29556012  0.65577918  0.06300897    -0.34650
N111        N  0.31498386  0.63639454  0.06006564    -0.26830
C112        C  0.31954076  0.63186128  0.03279145    -0.02070
C113        C  0.30219408  0.64918392  0.01783274     0.06540
C114        C  0.28722839  0.66410946  0.03746573     0.04640
H115        H  0.33440105  0.61702348  0.02452854     0.09740
H116        H  0.27150629  0.67979321  0.03352576     0.08580
N117        N  0.59785050  0.35233280  0.12737611    -0.25810
N118        N  0.60483993  0.34551437  0.15313390    -0.33670
C119        C  0.58966492  0.36083440  0.17113408     0.02530
C120        C  0.57243269  0.37798167  0.15570290     0.08550
C121        C  0.57807986  0.37213558  0.12813813    -0.04550
H122        H  0.59110195  0.35954875  0.19361336     0.09220
H123        H  0.56856219  0.38153579  0.10996912     0.10420
Cu124      Cu  0.63474115  0.31561749  0.16138962     0.44170
Cu125      Cu  0.61560138  0.33429427  0.09258571     0.41990
Cu126      Cu  0.66863348  0.28109740  0.10173347     0.43880
N127        N  0.66507855  0.28517606  0.16467374    -0.33200
N128        N  0.67752798  0.27246833  0.14353893    -0.27450
C129        C  0.69602359  0.25391204  0.15383930    -0.03550
C130        C  0.69495271  0.25523432  0.18265176     0.08660
C131        C  0.67521365  0.27516617  0.18875400     0.02460
H132        H  0.70918751  0.24052983  0.14133466     0.10110
H133        H  0.66864260  0.28192082  0.20925462     0.09190
N134        N  0.65461405  0.29490558  0.06283500    -0.34650
N135        N  0.63524039  0.31434196  0.05989610    -0.26830
C136        C  0.63059980  0.31879987  0.03262242    -0.02070
C137        C  0.64783860  0.30137485  0.01765734     0.06540
C138        C  0.66282792  0.28646720  0.03728837     0.04640
H139        H  0.61574880  0.33364977  0.02436377     0.09740
H140        H  0.67847981  0.27071472  0.03334422     0.08580
N141        N  0.59844017  0.59799448  0.12718102    -0.25810
N142        N  0.60535397  0.60494557  0.15292778    -0.33670
C143        C  0.59007461  0.58977139  0.17095534     0.02530
C144        C  0.57285134  0.57257536  0.15555360     0.08550
C145        C  0.57860958  0.57824235  0.12797639    -0.04550
H146        H  0.59143419  0.59119111  0.19343244     0.09220
H147        H  0.56912618  0.56875778  0.10982438     0.10420
Cu148      Cu  0.63528895  0.63481342  0.16113155     0.44170
Cu149      Cu  0.61638971  0.61581176  0.09238449     0.41990
Cu150      Cu  0.66956264  0.66897219  0.10152367     0.43880
N151        N  0.66565884  0.66520667  0.16444565    -0.33200
N152        N  0.67826453  0.67779372  0.14333697    -0.27450
C153        C  0.69673210  0.69637340  0.15368088    -0.03550
C154        C  0.69546672  0.69518630  0.18249198     0.08660
C155        C  0.67565138  0.67531597  0.18854685     0.02460
H156        H  0.70999349  0.70968882  0.14120904     0.10110
H157        H  0.66892553  0.66867410  0.20903110     0.09190
N158        N  0.65566246  0.65496758  0.06263838    -0.34650
N159        N  0.63624669  0.63555744  0.05970572    -0.26830
C160        C  0.63171602  0.63096096  0.03243347    -0.02070
C161        C  0.64907026  0.64826480  0.01746275     0.06540
C162        C  0.66401294  0.66324750  0.03708826     0.04640
H163        H  0.61685936  0.61610020  0.02417962     0.09740
H164        H  0.67972474  0.67894492  0.03313819     0.08580
O165        O  0.44488659  0.44553503  0.75572695    -0.71470
O166        O  0.50471909  0.50475475  0.75563849    -0.72450
O167        O  0.50440021  0.44522976  0.75566028    -0.61070
O168        O  0.44519559  0.50503673  0.75570449    -0.69480
O169        O  0.44562356  0.50471360  0.80207445    -0.69030
O170        O  0.50411744  0.44562286  0.80203032    -0.60280
O171        O  0.50443272  0.50443255  0.80200819    -0.72790
O172        O  0.44531657  0.44592394  0.80209671    -0.71570
Cu173      Cu  0.47480026  0.47513881  0.75395028     1.04560
Cu174      Cu  0.47487705  0.47517519  0.80359858     1.04330
C175        C  0.43581043  0.43654052  0.77910363     0.94730
C176        C  0.51386120  0.51379348  0.77898630     0.93870
C177        C  0.51344032  0.43613076  0.77901548     0.86020
C178        C  0.43620937  0.51415025  0.77907396     0.92290
N179        N  0.35135525  0.35297268  0.82318779    -0.25810
N180        N  0.34446244  0.34600288  0.79744045    -0.33670
C181        C  0.35976329  0.36115979  0.77941586     0.02530
C182        C  0.37697653  0.37836437  0.79482086     0.08550
C183        C  0.37119176  0.37271867  0.82239638    -0.04550
H184        H  0.35843848  0.35970948  0.75693873     0.09220
H185        H  0.38067468  0.38220005  0.84055040     0.10420
Cu186      Cu  0.31456256  0.31609446  0.78923525     0.44170
Cu187      Cu  0.33341066  0.33515266  0.85798139     0.41990
Cu188      Cu  0.28032061  0.28191231  0.84884977     0.43880
N189        N  0.28427511  0.28561288  0.78592697    -0.33200
N190        N  0.27167737  0.27302491  0.80703999    -0.27450
C191        C  0.25326998  0.25438168  0.79670407    -0.03550
C192        C  0.25457333  0.25551854  0.76789300     0.08660
C193        C  0.27433888  0.27543686  0.76182969     0.02460
H194        H  0.24001902  0.24106115  0.80918168     0.10110
H195        H  0.28106088  0.28207389  0.74134270     0.09190
N196        N  0.29422174  0.29592047  0.88773105    -0.34650
N197        N  0.31360944  0.31535892  0.89065996    -0.26830
C198        C  0.31818021  0.31992178  0.91793037    -0.02070
C199        C  0.30088097  0.30256648  0.93290321     0.06540
C200        C  0.28592923  0.28758778  0.91328240     0.04640
H201        H  0.33303844  0.33478274  0.92618113     0.09740
H202        H  0.27026337  0.27184543  0.91723614     0.08580
N203        N  0.35244485  0.59842097  0.82310124    -0.25810
N204        N  0.34547393  0.60527886  0.79734911    -0.33670
C205        C  0.36065956  0.58999113  0.77933361     0.02530
C206        C  0.37788121  0.57282307  0.79474784     0.08550
C207        C  0.37221702  0.57862085  0.82231952    -0.04550
H208        H  0.35922988  0.59130695  0.75685557     0.09220
H209        H  0.38171735  0.56918412  0.84047864     0.10420
Cu210      Cu  0.31556809  0.63515777  0.78910721     0.44170
Cu211      Cu  0.33464669  0.61638915  0.85790521     0.41990
Cu212      Cu  0.28158668  0.66956653  0.84874755     0.43880
N213        N  0.28519126  0.66554293  0.78582035    -0.33200
N214        N  0.27271049  0.67821912  0.80695412    -0.27450
C215        C  0.25418699  0.69674615  0.79665568    -0.03550
C216        C  0.25527018  0.69542980  0.76784527     0.08660
C217        C  0.27504890  0.67554065  0.76174065     0.02460
H218        H  0.24099674  0.71010276  0.80915979     0.10110
H219        H  0.28164414  0.66880907  0.74124011     0.09190
N220        N  0.29553657  0.65569610  0.88763749    -0.34650
N221        N  0.31491687  0.63626793  0.89058671    -0.26830
C222        C  0.31947750  0.63174948  0.91786382    -0.02070
C223        C  0.30217827  0.64912686  0.93281518     0.06540
C224        C  0.28723801  0.66406840  0.91317639     0.04640
H225        H  0.33430731  0.61688469  0.92613368     0.09740
H226        H  0.27155386  0.67979160  0.91710934     0.08580
N227        N  0.59694470  0.35153213  0.82292252    -0.25810
N228        N  0.60392249  0.34470714  0.79716321    -0.33670
C229        C  0.58876102  0.36004301  0.77916522     0.02530
C230        C  0.57154760  0.37720485  0.79459825     0.08550
C231        C  0.57719335  0.37135420  0.82216234    -0.04550
H232        H  0.59022473  0.35878786  0.75668612     0.09220
H233        H  0.56771869  0.38079505  0.84033234     0.10420
Cu234      Cu  0.63387966  0.31487412  0.78888950     0.44170
Cu235      Cu  0.61477155  0.33357266  0.85771787     0.41990
Cu236      Cu  0.66804643  0.28064041  0.84854395     0.43880
N237        N  0.66443812  0.28465686  0.78560390    -0.33200
N238        N  0.67699533  0.27206447  0.80674411    -0.27450
C239        C  0.69569076  0.25370616  0.79645470    -0.03550
C240        C  0.69463723  0.25503439  0.76764331     0.08660
C241        C  0.67469949  0.27476452  0.76152843     0.02460
H242        H  0.70899663  0.24047156  0.80896670     0.10110
H243        H  0.66810281  0.28148472  0.74102450     0.09190
N244        N  0.65407448  0.29446231  0.88744929    -0.34650
N245        N  0.63461036  0.31380534  0.89040262    -0.26830
C246        C  0.63008982  0.31835900  0.91768089    -0.02070
C247        C  0.64750197  0.30109250  0.93263177     0.06540
C248        C  0.66246839  0.28618072  0.91298837     0.04640
H249        H  0.61522757  0.33319018  0.92595222     0.09740
H250        H  0.67825188  0.27055646  0.91691890     0.08580
N251        N  0.59829523  0.59761963  0.82279271    -0.25810
N252        N  0.60509770  0.60457310  0.79702435    -0.33670
C253        C  0.58977132  0.58935438  0.77904684     0.02530
C254        C  0.57263807  0.57213032  0.79450266     0.08550
C255        C  0.57849755  0.57782994  0.82205906    -0.04550
H256        H  0.59102941  0.59077017  0.75656559     0.09220
H257        H  0.56909558  0.56834842  0.84024212     0.10420
Cu258      Cu  0.63494392  0.63452958  0.78871910     0.44170
Cu259      Cu  0.61630613  0.61548075  0.85756345     0.41990
Cu260      Cu  0.66939452  0.66862661  0.84833105     0.43880
N261        N  0.66528170  0.66498798  0.78539621    -0.33200
N262        N  0.67796783  0.67750092  0.80651987    -0.27450
C263        C  0.69644503  0.69606981  0.79620637    -0.03550
C264        C  0.69508850  0.69498945  0.76739630     0.08660
C265        C  0.67522563  0.67515966  0.76130764     0.02460
H266        H  0.70979509  0.70929233  0.80870114     0.10110
H267        H  0.66847633  0.66854961  0.74081199     0.09190
N268        N  0.65558428  0.65469899  0.88724950    -0.34650
N269        N  0.63618515  0.63528444  0.89022394    -0.26830
C270        C  0.63168470  0.63075703  0.91750725    -0.02070
C271        C  0.64904373  0.64811344  0.93243886     0.06540
C272        C  0.66395560  0.66305358  0.91277937     0.04640
H273        H  0.61683897  0.61591573  0.92579512     0.09740
H274        H  0.67965254  0.67878053  0.91669275     0.08580
O275        O  0.50515742  0.19477521  0.50507658    -0.71470
O276        O  0.44547477  0.19483069  0.44570493    -0.72450
O277        O  0.44563727  0.19483465  0.50522626    -0.61070
O278        O  0.50499557  0.19477635  0.44556923    -0.69480
O279        O  0.50458163  0.14840661  0.44590920    -0.69030
O280        O  0.44592999  0.14846460  0.50485560    -0.60280
O281        O  0.44577353  0.14846033  0.44604797    -0.72790
O282        O  0.50473757  0.14840489  0.50470487    -0.71570
Cu283      Cu  0.47531708  0.19653629  0.47539508     1.04560
Cu284      Cu  0.47525258  0.14688788  0.47537920     1.04330
C285        C  0.51421610  0.17140280  0.51410296     0.94730
C286        C  0.43636295  0.17147640  0.43665382     0.93870
C287        C  0.43657109  0.17148296  0.51430711     0.86020
C288        C  0.51400676  0.17140603  0.43648035     0.92290
N289        N  0.35208313  0.12760326  0.35271277    -0.25810
N290        N  0.34529889  0.15336890  0.34572949    -0.33670
C291        C  0.36061476  0.17135470  0.36094608     0.02530
C292        C  0.37772399  0.15590792  0.37820078     0.08550
C293        C  0.37186125  0.12834737  0.37252278    -0.04550
H294        H  0.35935647  0.19383544  0.35951661     0.09220
H295        H  0.38123830  0.11016968  0.38204129     0.10420
Cu296      Cu  0.31546637  0.16166656  0.31576876     0.44170
Cu297      Cu  0.33404268  0.09282811  0.33488619     0.41990
Cu298      Cu  0.28093200  0.10206883  0.28175370     0.43880
N299        N  0.28509350  0.16499494  0.28535737    -0.33200
N300        N  0.27237495  0.14387605  0.27287114    -0.27450
C301        C  0.25386444  0.15419527  0.25433828    -0.03550
C302        C  0.25523314  0.18300365  0.25541927     0.08660
C303        C  0.27513906  0.18908666  0.27520591     0.02460
H304        H  0.24048236  0.14170594  0.24114314     0.10110
H305        H  0.28190825  0.20957990  0.28180292     0.09190
N306        N  0.29468442  0.06315403  0.29573508    -0.34650
N307        N  0.31408969  0.06017295  0.31514391    -0.26830
C308        C  0.31851978  0.03288747  0.31973142    -0.02070
C309        C  0.30110799  0.01796397  0.30242009     0.06540
C310        C  0.28623875  0.03762890  0.28744448     0.04640
H311        H  0.33334434  0.02459266  0.33459149     0.09740
H312        H  0.27051069  0.03372277  0.27174601     0.08580
N313        N  0.59777216  0.12742513  0.35217143    -0.25810
N314        N  0.60476035  0.15317987  0.34534241    -0.33670
C315        C  0.58959629  0.17118746  0.36066402     0.02530
C316        C  0.57237209  0.15576408  0.37782313     0.08550
C317        C  0.57801247  0.12819625  0.37198296    -0.04550
H318        H  0.59103660  0.19366625  0.35937255     0.09220
H319        H  0.56849911  0.11003162  0.38139421     0.10420
Cu320      Cu  0.63464888  0.16142281  0.31543544     0.44170
Cu321      Cu  0.61551558  0.09262888  0.33413844     0.41990
Cu322      Cu  0.66855838  0.10176753  0.28094521     0.43880
N323        N  0.66499172  0.16470578  0.28500513    -0.33200
N324        N  0.67745561  0.14357060  0.27231199    -0.27450
C325        C  0.69596975  0.15387089  0.25377604    -0.03550
C326        C  0.69489112  0.18268385  0.25509361     0.08660
C327        C  0.67513236  0.18878600  0.27500421     0.02460
H328        H  0.70915545  0.14136613  0.24041546     0.10110
H329        H  0.66855993  0.20928667  0.28175889     0.09190
N330        N  0.65453448  0.06287439  0.29475922    -0.34650
N331        N  0.63515876  0.05993888  0.31419250    -0.26830
C332        C  0.63052186  0.03266599  0.31865677    -0.02070
C333        C  0.64776506  0.01769845  0.30123904     0.06540
C334        C  0.66275312  0.03732630  0.28632922     0.04640
H335        H  0.61567221  0.02440975  0.33350764     0.09740
H336        H  0.67840919  0.03337915  0.27058269     0.08580
N337        N  0.35275389  0.12765494  0.59863996    -0.25810
N338        N  0.34581870  0.15341921  0.60549049    -0.33670
C339        C  0.36102763  0.17140470  0.59018684     0.02530
C340        C  0.37822510  0.15595623  0.57301919     0.08550
C341        C  0.37252136  0.12839753  0.57883538    -0.04550
H342        H  0.35962534  0.19388551  0.59148523     0.09220
H343        H  0.38198680  0.11021863  0.56940150     0.10420
Cu344      Cu  0.31590001  0.16169861  0.63536898     0.44170
Cu345      Cu  0.33490537  0.09287706  0.61659744     0.41990
Cu346      Cu  0.28175010  0.10203622  0.66964121     0.43880
N347        N  0.28543787  0.16497715  0.66569134    -0.33200
N348        N  0.27288674  0.14383640  0.67828791    -0.27450
C349        C  0.25426898  0.15412386  0.69672468    -0.03550
C350        C  0.25537376  0.18293494  0.69545338     0.08660
C351        C  0.27525053  0.18905210  0.67566382     0.02460
H352        H  0.24097784  0.14161025  0.70997087     0.10110
H353        H  0.28184919  0.20955725  0.66895117     0.09190
N354        N  0.29571712  0.06313743  0.65580710    -0.34650
N355        N  0.31513911  0.06019240  0.63642236    -0.26830
C356        C  0.31971117  0.03291760  0.63190543    -0.02070
C357        C  0.30237626  0.01796080  0.64923910     0.06540
C358        C  0.28740154  0.03759509  0.66415378     0.04640
H359        H  0.33457226  0.02465305  0.61706993     0.09740
H360        H  0.27168277  0.03365669  0.67983971     0.08580
N361        N  0.59855625  0.12733207  0.59780026    -0.25810
N362        N  0.60546511  0.15308092  0.60474839    -0.33670
C363        C  0.59016845  0.17110393  0.58958309     0.02530
C364        C  0.57293987  0.15569687  0.57239612     0.08550
C365        C  0.57871282  0.12812142  0.57805952    -0.04550
H366        H  0.59151758  0.19358156  0.59100483     0.09220
H367        H  0.56922828  0.10996625  0.56858252     0.10420
Cu368      Cu  0.63541062  0.16129272  0.63460888     0.44170
Cu369      Cu  0.61652024  0.09253881  0.61561143     0.41990
Cu370      Cu  0.66968315  0.10168200  0.66877833     0.43880
N371        N  0.66577343  0.16460837  0.66501475    -0.33200
N372        N  0.67837354  0.14349858  0.67760860    -0.27450
C373        C  0.69682218  0.15384196  0.69620820    -0.03550
C374        C  0.69555360  0.18265393  0.69502576     0.08660
C375        C  0.67575286  0.18870962  0.67513858     0.02460
H376        H  0.71006962  0.14136896  0.70953831     0.10110
H377        H  0.66902189  0.20919447  0.66850131     0.09190
N378        N  0.65579228  0.06279215  0.65477011    -0.34650
N379        N  0.63637909  0.05985972  0.63535645    -0.26830
C380        C  0.63184792  0.03258757  0.63076031    -0.02070
C381        C  0.64919922  0.01761537  0.64806778     0.06540
C382        C  0.66414082  0.03724079  0.66305268     0.04640
H383        H  0.61699067  0.02433472  0.61589915     0.09740
H384        H  0.67984845  0.03328963  0.67875530     0.08580
O385        O  0.50444900  0.80211029  0.50432598    -0.71470
O386        O  0.44529337  0.80217358  0.44585303    -0.72450
O387        O  0.44564279  0.80217296  0.50464448    -0.61070
O388        O  0.50409764  0.80210659  0.44551760    -0.69480
O389        O  0.50438442  0.75573609  0.44514472    -0.69030
O390        O  0.44522097  0.75580267  0.50498653    -0.60280
O391        O  0.44486683  0.75580355  0.44548281    -0.72790
O392        O  0.50474131  0.75574035  0.50466867    -0.71570
Cu393      Cu  0.47487459  0.80368693  0.47508580     1.04560
Cu394      Cu  0.47480295  0.75403836  0.47507022     1.04330
C395        C  0.51388513  0.77909307  0.51369293     0.94730
C396        C  0.43578134  0.77917686  0.43648498     0.93870
C397        C  0.43624210  0.77917535  0.51410001     0.86020
C398        C  0.51341997  0.77908748  0.43603345     0.92290
N399        N  0.35125078  0.82322920  0.35296016    -0.25810
N400        N  0.34435578  0.79747905  0.34600252    -0.33670
C401        C  0.35966939  0.77946022  0.36115693     0.02530
C402        C  0.37689270  0.79487159  0.37834714     0.08550
C403        C  0.37110035  0.82244506  0.37269498    -0.04550
H404        H  0.35834856  0.75698241  0.35971277     0.09220
H405        H  0.38058917  0.84060296  0.38216257     0.10420
Cu406      Cu  0.31444160  0.78926240  0.31610448     0.44170
Cu407      Cu  0.33329971  0.85801972  0.33513467     0.41990
Cu408      Cu  0.28021538  0.84887874  0.28189320     0.43880
N409        N  0.28415999  0.78595028  0.28561037    -0.33200
N410        N  0.27157355  0.80706403  0.27300904    -0.27450
C411        C  0.25318307  0.79672769  0.25434836    -0.03550
C412        C  0.25448217  0.76791560  0.25548863     0.08660
C413        C  0.27423083  0.76185238  0.27542651     0.02460
H414        H  0.23994934  0.80920597  0.24100943     0.10110
H415        H  0.28095227  0.74136501  0.28206534     0.09190
N416        N  0.29411550  0.88776763  0.29589213    -0.34650
N417        N  0.31350232  0.89069853  0.31533216    -0.26830
C418        C  0.31807863  0.91796974  0.31988617    -0.02070
C419        C  0.30078402  0.93294273  0.30252374     0.06540
C420        C  0.28582908  0.91331954  0.28754973     0.04640
H421        H  0.33293945  0.92622122  0.33474457     0.09740
H422        H  0.27016687  0.91727237  0.27180222     0.08580
N423        N  0.59694900  0.82296594  0.35145677    -0.25810
N424        N  0.60393872  0.79720561  0.34464582    -0.33670
C425        C  0.58877267  0.77920992  0.35997817     0.02530
C426        C  0.57154412  0.79464606  0.37712269     0.08550
C427        C  0.57718622  0.82220910  0.37126573    -0.04550
H428        H  0.59024253  0.75673045  0.35873161     0.09220
H429        H  0.56770014  0.84038091  0.38069249     0.10420
Cu430      Cu  0.63391411  0.78893110  0.31483083     0.44170
Cu431      Cu  0.61476967  0.85775922  0.33349261     0.41990
Cu432      Cu  0.66803044  0.84859077  0.28055340     0.43880
N433        N  0.66447017  0.78565097  0.28461067    -0.33200
N434        N  0.67699879  0.80679325  0.27199534    -0.27450
C435        C  0.69568073  0.79650805  0.25362234    -0.03550
C436        C  0.69465411  0.76769709  0.25496977     0.08660
C437        C  0.67474143  0.76157753  0.27472191     0.02460
H438        H  0.70895560  0.80902277  0.24036107     0.10110
H439        H  0.66815891  0.74107202  0.28144954     0.09190
N440        N  0.65405062  0.88749341  0.29436938    -0.34650
N441        N  0.63459174  0.89044529  0.31371633    -0.26830
C442        C  0.63006206  0.91772323  0.31826421    -0.02070
C443        C  0.64746309  0.93267458  0.30098965     0.06540
C444        C  0.66243239  0.91303270  0.28607925     0.04640
H445        H  0.61520044  0.92599384  0.33309581     0.09740
H446        H  0.67820870  0.91696421  0.27044954     0.08580
N447        N  0.35262532  0.82322279  0.59850206    -0.25810
N448        N  0.34565274  0.79747229  0.60536240    -0.33670
C449        C  0.36081012  0.77945293  0.59005112     0.02530
C450        C  0.37801551  0.79486326  0.57286568     0.08550
C451        C  0.37237097  0.82243646  0.57867739    -0.04550
H452        H  0.35936822  0.75697511  0.59135869     0.09220
H453        H  0.38186235  0.84059343  0.56922935     0.10420
Cu454      Cu  0.31576888  0.78923880  0.63526210     0.44170
Cu455      Cu  0.33485123  0.85802969  0.61648736     0.41990
Cu456      Cu  0.28177911  0.84888058  0.66965585     0.43880
N457        N  0.28537641  0.78595368  0.66562843    -0.33200
N458        N  0.27288276  0.80708796  0.67829170    -0.27450
C459        C  0.25432223  0.79678974  0.69677997    -0.03550
C460        C  0.25539965  0.76797887  0.69545577     0.08660
C461        C  0.27520920  0.76187415  0.67559876     0.02460
H462        H  0.24110347  0.80929418  0.71010802     0.10110
H463        H  0.28179599  0.74137348  0.66885778     0.09190
N464        N  0.29574510  0.88776715  0.65579380    -0.34650
N465        N  0.31512861  0.89071260  0.63636988    -0.26830
C466        C  0.31969141  0.91798881  0.63185004    -0.02070
C467        C  0.30239071  0.93294359  0.64922232     0.06540
C468        C  0.28744701  0.91330802  0.66416212     0.04640
H469        H  0.33452024  0.92625563  0.61698432     0.09740
H470        H  0.27175739  0.91724446  0.67987796     0.08580
N471        N  0.59834312  0.82294000  0.59748223    -0.25810
N472        N  0.60513013  0.79717297  0.60445860    -0.33670
C473        C  0.58979853  0.77919119  0.58925092     0.02530
C474        C  0.57267735  0.79464205  0.57200899     0.08550
C475        C  0.57854920  0.82220073  0.57768733    -0.04550
H476        H  0.59104422  0.75671022  0.59068716     0.09220
H477        H  0.56915730  0.84038120  0.56818876     0.10420
Cu478      Cu  0.63496179  0.78887315  0.63442983     0.44170
Cu479      Cu  0.61637062  0.85771417  0.61532521     0.41990
Cu480      Cu  0.66945627  0.84848037  0.66848395     0.43880
N481        N  0.66529461  0.78554780  0.66489139    -0.33200
N482        N  0.67800261  0.80666912  0.67738531    -0.27450
C483        C  0.69647964  0.79635202  0.69595428    -0.03550
C484        C  0.69509596  0.76754224  0.69489632     0.08660
C485        C  0.67522106  0.76145750  0.67507723     0.02460
H486        H  0.70984891  0.80884392  0.70916006     0.10110
H487        H  0.66845654  0.74096319  0.66847908     0.09190
N488        N  0.65566258  0.88739840  0.65453602    -0.34650
N489        N  0.63626560  0.89037465  0.63511797    -0.26830
C490        C  0.63177730  0.91765921  0.63058026    -0.02070
C491        C  0.64914195  0.93258917  0.64793340     0.06540
C492        C  0.66404420  0.91292738  0.66288233     0.04640
H493        H  0.61693521  0.92594924  0.61573496     0.09740
H494        H  0.67974118  0.91683863  0.67861055     0.08580
C495        C  0.74683983  0.71134776  0.23940448     0.04610
C496        C  0.73513365  0.69949819  0.21535904    -0.11540
C497        C  0.71127009  0.71125605  0.20321231     0.02110
C498        C  0.69922484  0.73509492  0.21511656    -0.10070
C499        C  0.71081268  0.74706572  0.23915705     0.04600
C500        C  0.73464680  0.73515886  0.25121780    -0.09490
H501        H  0.74331853  0.68000068  0.20735528     0.10190
H502        H  0.67971215  0.74305910  0.20692356     0.07720
H503        H  0.74247965  0.74319343  0.27085345     0.07570
O504        O  0.14833029  0.50481896  0.50466781    -0.71470
O505        O  0.14828791  0.44595976  0.44590440    -0.72450
O506        O  0.14831267  0.44601171  0.50470180    -0.61070
O507        O  0.14830093  0.50475433  0.44586230    -0.69480
O508        O  0.19467610  0.50511226  0.44549781    -0.69030
O509        O  0.19468781  0.44565424  0.50505387    -0.60280
O510        O  0.19466331  0.44560476  0.44554262    -0.72790
O511        O  0.19470572  0.50517528  0.50501656    -0.71570
Cu512      Cu  0.14676167  0.47538731  0.47528599     1.04560
Cu513      Cu  0.19641563  0.47538803  0.47527954     1.04330
C514        C  0.17134862  0.51424729  0.51407469     0.94730
C515        C  0.17129177  0.43653666  0.43648814     0.93870
C516        C  0.17132404  0.43659379  0.51411542     0.86020
C517        C  0.17130851  0.51415431  0.43642499     0.92290
N518        N  0.12730280  0.35244518  0.35243222    -0.25810
N519        N  0.15306425  0.34556088  0.34552486    -0.33670
C520        C  0.17106982  0.36081894  0.36077474     0.02530
C521        C  0.15563995  0.37799713  0.37797231     0.08550
C522        C  0.12806896  0.37223379  0.37222792    -0.04550
H523        H  0.19355200  0.35947169  0.35940903     0.09220
H524        H  0.10989995  0.38168234  0.38169414     0.10420
Cu525      Cu  0.16132785  0.31567599  0.31562400     0.44170
Cu526      Cu  0.09250995  0.33451324  0.33452245     0.41990
Cu527      Cu  0.10171115  0.28138838  0.28139044     0.43880
N528        N  0.16464188  0.28529194  0.28523895    -0.33200
N529        N  0.14352075  0.27267824  0.27264863    -0.27450
C530        C  0.15384379  0.25415948  0.25412734    -0.03550
C531        C  0.18265616  0.25540255  0.25534254     0.08660
C532        C  0.18873678  0.27525310  0.27518039     0.02460
H533        H  0.14135524  0.24086242  0.24084622     0.10110
H534        H  0.20923141  0.28194818  0.28185543     0.09190
N535        N  0.06280401  0.29525890  0.29528750    -0.34650
N536        N  0.05983770  0.31466470  0.31469580    -0.26830
C537        C  0.03255216  0.31917377  0.31922356    -0.02070
C538        C  0.01761288  0.30181414  0.30187366     0.06540
C539        C  0.03726910  0.28689249  0.28693811     0.04640
H540        H  0.02426785  0.33401525  0.33407087     0.09740
H541        H  0.03335047  0.27118076  0.27122835     0.08580
N542        N  0.12728631  0.59787431  0.35210746    -0.25810
N543        N  0.15304040  0.60475528  0.34515682    -0.33670
C544        C  0.17106059  0.58957705  0.36045058     0.02530
C545        C  0.15564782  0.57245493  0.37771925     0.08550
C546        C  0.12807218  0.57816869  0.37197104    -0.04550
H547        H  0.19354123  0.59094455  0.35907157     0.09220
H548        H  0.10991224  0.56874785  0.38148630     0.10420
Cu549      Cu  0.16127735  0.63454885  0.31515895     0.44170
Cu550      Cu  0.09246660  0.61570992  0.33419329     0.41990
Cu551      Cu  0.10159900  0.66880593  0.28106938     0.43880
N552        N  0.16453870  0.66492746  0.28476764    -0.33200
N553        N  0.14338810  0.67756039  0.27226685    -0.27450
C554        C  0.15366467  0.69615426  0.25380232    -0.03550
C555        C  0.18247960  0.69492420  0.25493724     0.08660
C556        C  0.18860968  0.67501726  0.27468969     0.02460
H557        H  0.14114212  0.70951277  0.24063102     0.10110
H558        H  0.20912125  0.66835964  0.28133366     0.09190
N559        N  0.06271064  0.65489298  0.29498041    -0.34770
N560        N  0.05976734  0.63549377  0.31438686    -0.26830
C561        C  0.03248763  0.63096039  0.31893620    -0.02070
C562        C  0.01752977  0.64829732  0.30160064     0.06540
C563        C  0.03716703  0.66323049  0.28665220     0.04640
H564        H  0.02422048  0.61612454  0.33379363     0.09740
H565        H  0.03322994  0.67893604  0.27095362     0.08580
N566        N  0.12733866  0.35242787  0.59800639    -0.25810
N567        N  0.15309574  0.34545181  0.60485437    -0.33670
C568        C  0.17110926  0.36071728  0.58964166     0.02530
C569        C  0.15568920  0.37799482  0.57253211     0.08550
C570        C  0.12811615  0.37227992  0.57828861    -0.04550
H571        H  0.19359047  0.35930763  0.59097165     0.09220
H572        H  0.10995205  0.38180458  0.56888269     0.10420
Cu573      Cu  0.16134388  0.31544253  0.63463680     0.44170
Cu574      Cu  0.09252477  0.33454789  0.61588643     0.41990
Cu575      Cu  0.10166730  0.28141435  0.66896493     0.43880
N576        N  0.16460778  0.28502231  0.66498883    -0.33200
N577        N  0.14345858  0.27255041  0.67765005    -0.27450
C578        C  0.15373652  0.25405466  0.69621307    -0.03550
C579        C  0.18255061  0.25513364  0.69492938     0.08660
C580        C  0.18867951  0.27489069  0.67502720     0.02460
H581        H  0.14121527  0.24089776  0.70958511     0.10110
H582        H  0.20919061  0.28150347  0.66834025     0.09190
N583        N  0.06277443  0.29535287  0.65508803    -0.34650
N584        N  0.05982693  0.31476300  0.63569288    -0.26830
C585        C  0.03254594  0.31932182  0.63117169    -0.02070
C586        C  0.01759154  0.30198896  0.64851277     0.06540
C587        C  0.03723268  0.28703176  0.66343527     0.04640
H588        H  0.02427540  0.33417944  0.61633677     0.09740
H589        H  0.03329940  0.27132738  0.67913547     0.08580
N590        N  0.12748761  0.59841410  0.59805911    -0.25810
N591        N  0.15325345  0.60531313  0.60496860    -0.33670
C592        C  0.17124435  0.59004414  0.58973268     0.02530
C593        C  0.15579744  0.57284650  0.57254489     0.08550
C594        C  0.12823386  0.57860994  0.57828050    -0.04550
H595        H  0.19372752  0.59139361  0.59110323     0.09220
H596        H  0.11005513  0.56914810  0.56882262     0.10420
Cu597      Cu  0.16152791  0.63522630  0.63486778     0.44170
Cu598      Cu  0.09271006  0.61633016  0.61594353     0.41990
Cu599      Cu  0.10188376  0.66945207  0.66907955     0.43880
N600        N  0.16483308  0.66561121  0.66527529    -0.33200
N601        N  0.14370455  0.67819443  0.67785883    -0.27450
C602        C  0.15402142  0.69670341  0.69640916    -0.03550
C603        C  0.18283700  0.69549153  0.69522137     0.08660
C604        C  0.18892475  0.67566406  0.67536760     0.02460
H605        H  0.14152587  0.70997169  0.70969685     0.10110
H606        H  0.20942290  0.66898805  0.66871071     0.09190
N607        N  0.06297169  0.65554009  0.65514650    -0.34650
N608        N  0.06002835  0.63613203  0.63573347    -0.26830
C609        C  0.03275153  0.63157631  0.63117394    -0.02070
C610        C  0.01778657  0.64890687  0.64850679     0.06540
C611        C  0.03742183  0.66386213  0.66346775     0.04640
H612        H  0.02449078  0.61671967  0.61631785     0.09740
H613        H  0.03347831  0.67956315  0.67917679     0.08580
O614        O  0.75562109  0.50497569  0.50485458    -0.71470
O615        O  0.75560122  0.44540154  0.44537004    -0.72450
O616        O  0.75560958  0.44546555  0.50488456    -0.61070
O617        O  0.75559258  0.50491723  0.44534337    -0.69480
O618        O  0.80196828  0.50457861  0.44569547    -0.69030
O619        O  0.80198515  0.44582731  0.50453529    -0.60280
O620        O  0.80197642  0.44577371  0.44573129    -0.72790
O621        O  0.80199623  0.50462574  0.50449459    -0.71570
Cu622      Cu  0.75387408  0.47518878  0.47511209     1.04560
Cu623      Cu  0.80352823  0.47520113  0.47511343     1.04330
C624        C  0.77899211  0.51404796  0.51390946     0.94730
C625        C  0.77896476  0.43633892  0.43631663     0.93870
C626        C  0.77897386  0.43642049  0.51395912     0.86020
C627        C  0.77895159  0.51398302  0.43627904     0.92290
N628        N  0.82289708  0.35221342  0.35231479    -0.25810
N629        N  0.79713361  0.34530659  0.34540519    -0.33670
C630        C  0.77913662  0.36056452  0.36064389     0.02530
C631        C  0.79457551  0.37776476  0.37783503     0.08550
C632        C  0.82214271  0.37201376  0.37209805    -0.04550
H633        H  0.75665408  0.35920507  0.35927348     0.09220
H634        H  0.84031749  0.38148050  0.38155867     0.10420
Cu635      Cu  0.78886692  0.31539680  0.31550453     0.44170
Cu636      Cu  0.85767379  0.33430187  0.33441810     0.41990
Cu637      Cu  0.84847664  0.28115977  0.28127204     0.43880
N638        N  0.78553365  0.28501367  0.28510237    -0.33200
N639        N  0.80664882  0.27241954  0.27250810    -0.27450
C640        C  0.79631008  0.25390954  0.25396909    -0.03550
C641        C  0.76749409  0.25513522  0.25517618     0.08660
C642        C  0.76143092  0.27496963  0.27502969     0.02460
H643        H  0.80879037  0.24063045  0.24067780     0.10110
H644        H  0.74094085  0.28165436  0.28170241     0.09190
N645        N  0.88739106  0.29508111  0.29519849    -0.34650
N646        N  0.89034192  0.31449114  0.31460944    -0.26830
C647        C  0.91762079  0.31904571  0.31915893    -0.02070
C648        C  0.93257919  0.30171333  0.30182247     0.06540
C649        C  0.91293823  0.28675776  0.28686959     0.04640
H650        H  0.92588750  0.33390256  0.33401156     0.09740
H651        H  0.91687614  0.27105485  0.27116103     0.08580
N652        N  0.82279497  0.59806721  0.35224332    -0.25810
N653        N  0.79702908  0.60507170  0.34546023    -0.33670
C654        C  0.77903985  0.58982268  0.36071828     0.02530
C655        C  0.79448880  0.57252872  0.37778646     0.08550
C656        C  0.82205067  0.57821564  0.37196056    -0.04550
H657        H  0.75655682  0.59125901  0.35945178     0.09220
H658        H  0.84023014  0.56867776  0.38132367     0.10420
Cu659      Cu  0.78875049  0.63510865  0.31570978     0.44170
Cu660      Cu  0.85757506  0.61591830  0.33429797     0.41990
Cu661      Cu  0.84841239  0.66907816  0.28126110     0.43880
N662        N  0.78546360  0.66555172  0.28537807    -0.33200
N663        N  0.80660174  0.67799293  0.27266668    -0.27450
C664        C  0.79630308  0.69650042  0.25412494    -0.03550
C665        C  0.76748859  0.69546798  0.25547952     0.08660
C666        C  0.76138151  0.67571945  0.27539768     0.02460
H667        H  0.80881062  0.70963383  0.24071710     0.10110
H668        H  0.74087730  0.66912917  0.28212771     0.09190
N669        N  0.88731935  0.65509740  0.29508813    -0.34650
N670        N  0.89026138  0.63567457  0.31447102    -0.26830
C671        C  0.91753743  0.63108572  0.31897981    -0.02070
C672        C  0.93250092  0.64841104  0.30164396     0.06540
C673        C  0.91286785  0.66339784  0.28673564     0.04640
H674        H  0.92579820  0.61621601  0.33380824     0.09740
H675        H  0.91681153  0.67911096  0.27104692     0.08580
N676        N  0.82285039  0.35252747  0.59817692    -0.25810
N677        N  0.79708594  0.34572150  0.60516087    -0.33670
C678        C  0.77909294  0.36095054  0.58988520     0.02530
C679        C  0.79453774  0.37802441  0.57259582     0.08550
C680        C  0.82210131  0.37223141  0.57831220    -0.04550
H681        H  0.75661010  0.35965691  0.59129689     0.09220
H682        H  0.84027845  0.38160422  0.56878205     0.10420
Cu683      Cu  0.78881185  0.31597069  0.63519632     0.44170
Cu684      Cu  0.85763385  0.33462057  0.61606446     0.41990
Cu685      Cu  0.84847028  0.28158372  0.66923091     0.43880
N686        N  0.78552025  0.28562506  0.66562332    -0.33200
N687        N  0.80665719  0.27293627  0.67809247    -0.27450
C688        C  0.79635481  0.25437103  0.69657383    -0.03550
C689        C  0.76753914  0.25568485  0.69549222     0.08660
C690        C  0.76143611  0.27560543  0.67574413     0.02460
H691        H  0.80886038  0.24097112  0.70971906     0.10110
H692        H  0.74093296  0.28230961  0.66912108     0.09190
N693        N  0.88737850  0.29543943  0.65527766    -0.34650
N694        N  0.89031962  0.31481998  0.63585248    -0.26830
C695        C  0.91759546  0.31934158  0.63127809    -0.02070
C696        C  0.93256082  0.30201722  0.64861537     0.06540
C697        C  0.91292828  0.28710181  0.66359395     0.04640
H698        H  0.92585491  0.33416820  0.61640698     0.09740
H699        H  0.91687338  0.27141508  0.67930921     0.08580
N700        N  0.82304485  0.59816357  0.59791411    -0.25810
N701        N  0.79728842  0.60504742  0.60484022    -0.33670
C702        C  0.77927101  0.58978708  0.58960642     0.02530
C703        C  0.79468653  0.57260644  0.57239827     0.08550
C704        C  0.82226294  0.57837184  0.57812091    -0.04550
H705        H  0.75678996  0.59113284  0.59099166     0.09220
H706        H  0.84042462  0.56892083  0.56864312     0.10420
Cu707      Cu  0.78904761  0.63493104  0.63474849     0.44170
Cu708      Cu  0.85784749  0.61610220  0.61580713     0.41990
Cu709      Cu  0.84866123  0.66923601  0.66895746     0.43880
N710        N  0.78573309  0.66530906  0.66513895    -0.33200
N711        N  0.80685194  0.67793418  0.67772135    -0.27450
C712        C  0.79652433  0.69644801  0.69624649    -0.03550
C713        C  0.76771110  0.69518657  0.69504295     0.08660
C714        C  0.76163643  0.67533325  0.67520652     0.02460
H715        H  0.80900987  0.70975446  0.70952112     0.10110
H716        H  0.74114359  0.66862850  0.66853593     0.09190
N717        N  0.88756171  0.65536200  0.65504042    -0.34650
N718        N  0.89052300  0.63595709  0.63562968    -0.26830
C719        C  0.91780802  0.63144776  0.63109649    -0.02070
C720        C  0.93275165  0.64880571  0.64844468     0.06540
C721        C  0.91309885  0.66372660  0.66338506     0.04640
H722        H  0.92608915  0.61660583  0.61624785     0.09740
H723        H  0.91702137  0.67943568  0.67909653     0.08580
C724        C  0.23928327  0.23955441  0.20359999     0.04610
C725        C  0.25117163  0.21568577  0.21559343    -0.11540
C726        C  0.23928334  0.20366989  0.23944960     0.02110
C727        C  0.21532503  0.21557473  0.25124728    -0.10070
C728        C  0.20333932  0.23946226  0.23938936     0.04600
C729        C  0.21532697  0.25134395  0.21551617    -0.09490
H730        H  0.27075182  0.20769641  0.20759762     0.10190
H731        H  0.20726295  0.20751186  0.27076774     0.07720
H732        H  0.20726498  0.27087295  0.20747149     0.07570
C733        C  0.77988777  0.41519810  0.41520983    -0.11790
C734        C  0.78464749  0.39774072  0.39778040    -0.13350
C735        C  0.77989064  0.41533841  0.53510812    -0.11790
C736        C  0.78462422  0.39793483  0.55258795    -0.13350
C737        C  0.77985631  0.53509941  0.41516329    -0.11790
C738        C  0.78458143  0.55255213  0.39773055    -0.13350
C739        C  0.77993512  0.53518440  0.53501944    -0.11790
C740        C  0.78472594  0.55263633  0.55245125    -0.13350
C741        C  0.98786025  0.65064422  0.65025384    -0.11790
C742        C  0.96267434  0.65060793  0.65022933    -0.13350
C743        C  0.98766981  0.30023900  0.65030797    -0.11790
C744        C  0.96248513  0.30024205  0.65034503    -0.13350
C745        C  0.96242420  0.65013189  0.29986049    -0.11790
C746        C  0.98760840  0.65009172  0.29985264    -0.13350
C747        C  0.98769073  0.30000880  0.30008772    -0.11790
C748        C  0.96250490  0.29997318  0.30006713    -0.13350
C749        C  0.16558105  0.39796003  0.39793330    -0.11790
C750        C  0.17035261  0.41540617  0.41537453    -0.13350
C751        C  0.16563609  0.39799308  0.55262562    -0.11790
C752        C  0.17040087  0.41546231  0.53521821    -0.13350
C753        C  0.16560390  0.55258991  0.39775401    -0.11790
C754        C  0.17037667  0.53521762  0.41525580    -0.13350
C755        C  0.17044454  0.53539295  0.53517706    -0.11790
C756        C  0.16571028  0.55285939  0.55260396    -0.13350
C757        C  0.41452313  0.78012733  0.41549871    -0.11790
C758        C  0.39696953  0.78491258  0.39817340    -0.13350
C759        C  0.41523056  0.78012288  0.53531683    -0.11790
C760        C  0.39787446  0.78490434  0.55283056    -0.13350
C761        C  0.53439569  0.77998569  0.41477429    -0.11790
C762        C  0.55171682  0.78472438  0.39721185    -0.13350
C763        C  0.53511165  0.77999619  0.53472184    -0.11790
C764        C  0.55263179  0.78473460  0.55210447    -0.13350
C765        C  0.65095868  0.98769138  0.64978260    -0.11790
C766        C  0.65093827  0.96250805  0.64973858    -0.13350
C767        C  0.30063161  0.96286126  0.65099967    -0.11790
C768        C  0.30062409  0.98804229  0.65100668    -0.13350
C769        C  0.64941108  0.98777669  0.29937849    -0.11790
C770        C  0.64931854  0.96259431  0.29930516    -0.13350
C771        C  0.29911494  0.96286544  0.30072398    -0.11790
C772        C  0.29921733  0.98804767  0.30069707    -0.13350
C773        C  0.41519904  0.17056972  0.41556623    -0.11790
C774        C  0.39772457  0.16582316  0.39814240    -0.13350
C775        C  0.41551607  0.17058571  0.53549140    -0.11790
C776        C  0.39812681  0.16586105  0.55299222    -0.13350
C777        C  0.53507801  0.17046532  0.41531713    -0.11790
C778        C  0.55247507  0.16570288  0.39783574    -0.13350
C779        C  0.53540749  0.17045380  0.53515432    -0.11790
C780        C  0.55291136  0.16566305  0.55252694    -0.13350
C781        C  0.41457058  0.41553963  0.78006165    -0.11790
C782        C  0.39703352  0.39820226  0.78485371    -0.13350
C783        C  0.55173109  0.39730364  0.78467122    -0.11790
C784        C  0.53441684  0.41487177  0.77992352    -0.13350
C785        C  0.41516836  0.53534009  0.78001518    -0.11790
C786        C  0.39778026  0.55282425  0.78479335    -0.13350
C787        C  0.53507904  0.53483043  0.77987739    -0.11790
C788        C  0.55259569  0.55221915  0.78460349    -0.13350
C789        C  0.65082816  0.64992620  0.96235722    -0.11790
C790        C  0.65083797  0.64997404  0.98753995    -0.13350
C791        C  0.64937143  0.29941874  0.96255227    -0.11790
C792        C  0.64947458  0.29950195  0.98773504    -0.13350
C793        C  0.30042667  0.65091638  0.96273268    -0.11790
C794        C  0.30042802  0.65093585  0.98791377    -0.13350
C795        C  0.29928876  0.30076379  0.98800495    -0.11790
C796        C  0.29919960  0.30078040  0.96282391    -0.13350
C797        C  0.39773381  0.39824651  0.16577578    -0.11790
C798        C  0.41521308  0.41566675  0.17051256    -0.13350
C799        C  0.53511040  0.41545902  0.17038688    -0.11790
C800        C  0.55252017  0.39798628  0.16563177    -0.13350
C801        C  0.41547619  0.53557443  0.17047185    -0.11790
C802        C  0.39807443  0.55306311  0.16574247    -0.13350
C803        C  0.53536014  0.53530322  0.17032627    -0.11790
C804        C  0.55284556  0.55268998  0.16552701    -0.13350
loop_ 
_geom_bond_atom_site_label_1 
_geom_bond_atom_site_label_2 
_geom_bond_distance 
_geom_bond_site_symmetry_2 
_ccdc_geom_bond_type 
C1            C2   1.402       .  A
C1            C6   1.402       .  A
C1          C264   1.468       .  S
C2            C3   1.402       .  A
C2            H7   1.084       .  S
C3            C4   1.402       .  A
C3          C484   1.468       .  S
C4            C5   1.402       .  A
C4            H8   1.084       .  S
C5            C6   1.402       .  A
C5          C713   1.467       .  S
C6            H9   1.084       .  S
C10          C11   1.402       .  A
C10          C15   1.402       .  A
C10         C106   1.468       .  S
C11          C12   1.402       .  A
C11          H16   1.084       .  S
C12          C13   1.402       .  A
C12         C412   1.467       .  S
C13          C14   1.402       .  A
C13          H17   1.084       .  S
C14          C15   1.402       .  A
C14         C555   1.467       .  S
C15          H18   1.084       .  S
C19          C20   1.402       .  A
C19          C24   1.402       .  A
C19         C689   1.468       .  S
C20          C21   1.402       .  A
C20          H25   1.084       .  S
C21          C22   1.402       .  A
C21         C374   1.467       .  S
C22          C23   1.402       .  A
C22          H26   1.084       .  S
C23          C24   1.402       .  A
C23         C240   1.468       .  S
C24          H27   1.084       .  S
C28          C29   1.402       .  A
C28          C33   1.402       .  A
C28         C350   1.468       .  S
C29          C30   1.402       .  A
C29          H34   1.084       .  S
C30          C31   1.402       .  A
C30         C579   1.467       .  S
C31          C32   1.402       .  A
C31          H35   1.084       .  S
C32          C33   1.402       .  A
C32         C192   1.467       .  S
C33          H36   1.084       .  S
C37          C38   1.402       .  A
C37          C42   1.402       .  A
C37         C603   1.468       .  S
C38          C39   1.402       .  A
C38          H43   1.084       .  S
C39          C40   1.402       .  A
C39         C460   1.467       .  S
C40          C41   1.402       .  A
C40          H44   1.084       .  S
C41          C42   1.402       .  A
C41         C216   1.467       .  S
C42          H45   1.084       .  S
C46          C47   1.402       .  A
C46          C51   1.402       .  A
C46         C641   1.468       .  S
C47          C48   1.402       .  A
C47          H52   1.084       .  S
C48          C49   1.402       .  A
C48         C130   1.468       .  S
C49          C50   1.402       .  A
C49          H53   1.084       .  S
C50          C51   1.402       .  A
C50         C326   1.468       .  S
C51          H54   1.084       .  S
O55         Cu63   2.019       .  S
O55          C65   1.278       .  A
O56         Cu63   2.019       .  S
O56          C66   1.278       .  A
O57         Cu63   2.019       .  S
O57          C67   1.278       .  A
O58         Cu63   2.019       .  S
O58          C68   1.278       .  A
O59         Cu64   1.995       .  S
O59          C68   1.275       .  A
O60         Cu64   1.995       .  S
O60          C67   1.275       .  A
O61         Cu64   1.995       .  S
O61          C66   1.275       .  A
O62         Cu64   1.995       .  S
O62          C65   1.275       .  A
Cu63        Cu64   2.380       .  S
C65         C801   1.433       .  S
C66         C799   1.433       .  S
C67         C803   1.433       .  S
C68         C798   1.433       .  S
N69          N70   1.321       .  A
N69          C73   1.342       .  A
N69         Cu77   2.063       .  S
N70          C71   1.347       .  A
N70         Cu76   2.066       .  S
C71          C72   1.381       .  A
C71          H74   1.082       .  S
C72          C73   1.378       .  A
C72         C797   1.435       .  S
C73          H75   1.082       .  S
Cu76         N79   2.067       .  S
Cu77         N87   2.064       .  S
Cu78         N80   2.090       .  S
Cu78         N86   2.090       .  S
N79          N80   1.325       .  A
N79          C83   1.341       .  A
N80          C81   1.350       .  A
C81          C82   1.384       .  A
C81          H84   1.081       .  S
C82          C83   1.377       .  A
C82         C724   1.467       .  S
C83          H85   1.082       .  S
N86          N87   1.323       .  A
N86          C90   1.349       .  A
N87          C88   1.344       .  A
C88          C89   1.377       .  A
C88          H91   1.082       .  S
C89          C90   1.383       .  A
C89         C795   1.439   1_554  S
C90          H92   1.081       .  S
N93          N94   1.321       .  A
N93          C97   1.342       .  A
N93        Cu101   2.063       .  S
N94          C95   1.347       .  A
N94        Cu100   2.066       .  S
C95          C96   1.381       .  A
C95          H98   1.082       .  S
C96          C97   1.378       .  A
C96         C802   1.435       .  S
C97          H99   1.082       .  S
Cu100       N103   2.067       .  S
Cu101       N111   2.063       .  S
Cu102       N104   2.090       .  S
Cu102       N110   2.090       .  S
N103        N104   1.325       .  A
N103        C107   1.341       .  A
N104        C105   1.350       .  A
C105        C106   1.384       .  A
C105        H108   1.081       .  S
C106        C107   1.377       .  A
C107        H109   1.082       .  S
N110        N111   1.323       .  A
N110        C114   1.349       .  A
N111        C112   1.344       .  A
C112        C113   1.377       .  A
C112        H115   1.082       .  S
C113        C114   1.383       .  A
C113        C794   1.439   1_554  S
C114        H116   1.081       .  S
N117        N118   1.321       .  A
N117        C121   1.342       .  A
N117       Cu125   2.063       .  S
N118        C119   1.347       .  A
N118       Cu124   2.066       .  S
C119        C120   1.381       .  A
C119        H122   1.082       .  S
C120        C121   1.378       .  A
C120        C800   1.435       .  S
C121        H123   1.082       .  S
Cu124       N127   2.067       .  S
Cu125       N135   2.064       .  S
Cu126       N128   2.091       .  S
Cu126       N134   2.090       .  S
N127        N128   1.325       .  A
N127        C131   1.341       .  A
N128        C129   1.350       .  A
C129        C130   1.384       .  A
C129        H132   1.081       .  S
C130        C131   1.377       .  A
C131        H133   1.082       .  S
N134        N135   1.323       .  A
N134        C138   1.349       .  A
N135        C136   1.344       .  A
C136        C137   1.377       .  A
C136        H139   1.082       .  S
C137        C138   1.383       .  A
C137        C792   1.440   1_554  S
C138        H140   1.081       .  S
N141        N142   1.321       .  A
N141        C145   1.342       .  A
N141       Cu149   2.063       .  S
N142        C143   1.347       .  A
N142       Cu148   2.065       .  S
C143        C144   1.380       .  A
C143        H146   1.082       .  S
C144        C145   1.378       .  A
C144        C804   1.434       .  S
C145        H147   1.082       .  S
Cu148       N151   2.066       .  S
Cu149       N159   2.064       .  S
Cu150       N152   2.091       .  S
Cu150       N158   2.090       .  S
N151        N152   1.325       .  A
N151        C155   1.341       .  A
N152        C153   1.350       .  A
C153        C154   1.384       .  A
C153        H156   1.081       .  S
C154        C155   1.376       .  A
C154        C497   1.467       .  S
C155        H157   1.082       .  S
N158        N159   1.323       .  A
N158        C162   1.349       .  A
N159        C160   1.344       .  A
C160        C161   1.377       .  A
C160        H163   1.082       .  S
C161        C162   1.383       .  A
C161        C790   1.440   1_554  S
C162        H164   1.081       .  S
O165       Cu173   2.019       .  S
O165        C175   1.278       .  A
O166       Cu173   2.020       .  S
O166        C176   1.278       .  A
O167       Cu173   2.019       .  S
O167        C177   1.278       .  A
O168       Cu173   2.019       .  S
O168        C178   1.278       .  A
O169       Cu174   1.995       .  S
O169        C178   1.275       .  A
O170       Cu174   1.995       .  S
O170        C177   1.275       .  A
O171       Cu174   1.995       .  S
O171        C176   1.275       .  A
O172       Cu174   1.995       .  S
O172        C175   1.275       .  A
Cu173      Cu174   2.380       .  S
C175        C781   1.433       .  S
C176        C787   1.433       .  S
C177        C784   1.433       .  S
C178        C785   1.433       .  S
N179        N180   1.321       .  A
N179        C183   1.342       .  A
N179       Cu187   2.063       .  S
N180        C181   1.347       .  A
N180       Cu186   2.065       .  S
C181        C182   1.380       .  A
C181        H184   1.082       .  S
C182        C183   1.378       .  A
C182        C782   1.434       .  S
C183        H185   1.082       .  S
Cu186       N189   2.066       .  S
Cu187       N197   2.064       .  S
Cu188       N190   2.091       .  S
Cu188       N196   2.090       .  S
N189        N190   1.325       .  A
N189        C193   1.341       .  A
N190        C191   1.350       .  A
C191        C192   1.384       .  A
C191        H194   1.081       .  S
C192        C193   1.376       .  A
C193        H195   1.082       .  S
N196        N197   1.323       .  A
N196        C200   1.349       .  A
N197        C198   1.343       .  A
C198        C199   1.377       .  A
C198        H201   1.082       .  S
C199        C200   1.383       .  A
C199        C796   1.439       .  S
C200        H202   1.081       .  S
N203        N204   1.321       .  A
N203        C207   1.342       .  A
N203       Cu211   2.063       .  S
N204        C205   1.347       .  A
N204       Cu210   2.065       .  S
C205        C206   1.380       .  A
C205        H208   1.082       .  S
C206        C207   1.378       .  A
C206        C786   1.434       .  S
C207        H209   1.082       .  S
Cu210       N213   2.066       .  S
Cu211       N221   2.064       .  S
Cu212       N214   2.090       .  S
Cu212       N220   2.090       .  S
N213        N214   1.325       .  A
N213        C217   1.341       .  A
N214        C215   1.350       .  A
C215        C216   1.384       .  A
C215        H218   1.081       .  S
C216        C217   1.376       .  A
C217        H219   1.082       .  S
N220        N221   1.323       .  A
N220        C224   1.349       .  A
N221        C222   1.344       .  A
C222        C223   1.377       .  A
C222        H225   1.082       .  S
C223        C224   1.383       .  A
C223        C793   1.439       .  S
C224        H226   1.081       .  S
N227        N228   1.321       .  A
N227        C231   1.342       .  A
N227       Cu235   2.063       .  S
N228        C229   1.347       .  A
N228       Cu234   2.066       .  S
C229        C230   1.381       .  A
C229        H232   1.082       .  S
C230        C231   1.378       .  A
C230        C783   1.435       .  S
C231        H233   1.082       .  S
Cu234       N237   2.067       .  S
Cu235       N245   2.064       .  S
Cu236       N238   2.090       .  S
Cu236       N244   2.090       .  S
N237        N238   1.325       .  A
N237        C241   1.341       .  A
N238        C239   1.350       .  A
C239        C240   1.384       .  A
C239        H242   1.081       .  S
C240        C241   1.377       .  A
C241        H243   1.082       .  S
N244        N245   1.323       .  A
N244        C248   1.349       .  A
N245        C246   1.344       .  A
C246        C247   1.377       .  A
C246        H249   1.082       .  S
C247        C248   1.383       .  A
C247        C791   1.440       .  S
C248        H250   1.081       .  S
N251        N252   1.321       .  A
N251        C255   1.342       .  A
N251       Cu259   2.063       .  S
N252        C253   1.347       .  A
N252       Cu258   2.066       .  S
C253        C254   1.381       .  A
C253        H256   1.082       .  S
C254        C255   1.378       .  A
C254        C788   1.435       .  S
C255        H257   1.082       .  S
Cu258       N261   2.067       .  S
Cu259       N269   2.064       .  S
Cu260       N262   2.090       .  S
Cu260       N268   2.090       .  S
N261        N262   1.325       .  A
N261        C265   1.341       .  A
N262        C263   1.350       .  A
C263        C264   1.384       .  A
C263        H266   1.081       .  S
C264        C265   1.377       .  A
C265        H267   1.082       .  S
N268        N269   1.323       .  A
N268        C272   1.349       .  A
N269        C270   1.344       .  A
C270        C271   1.377       .  A
C270        H273   1.082       .  S
C271        C272   1.383       .  A
C271        C789   1.440       .  S
C272        H274   1.081       .  S
O275       Cu283   2.019       .  S
O275        C285   1.278       .  A
O276       Cu283   2.019       .  S
O276        C286   1.278       .  A
O277       Cu283   2.019       .  S
O277        C287   1.278       .  A
O278       Cu283   2.019       .  S
O278        C288   1.278       .  A
O279       Cu284   1.995       .  S
O279        C288   1.275       .  A
O280       Cu284   1.995       .  S
O280        C287   1.275       .  A
O281       Cu284   1.995       .  S
O281        C286   1.275       .  A
O282       Cu284   1.995       .  S
O282        C285   1.275       .  A
Cu283      Cu284   2.380       .  S
C285        C779   1.433       .  S
C286        C773   1.433       .  S
C287        C775   1.433       .  S
C288        C777   1.433       .  S
N289        N290   1.321       .  A
N289        C293   1.342       .  A
N289       Cu297   2.063       .  S
N290        C291   1.347       .  A
N290       Cu296   2.066       .  S
C291        C292   1.381       .  A
C291        H294   1.082       .  S
C292        C293   1.378       .  A
C292        C774   1.435       .  S
C293        H295   1.082       .  S
Cu296       N299   2.066       .  S
Cu297       N307   2.064       .  S
Cu298       N300   2.090       .  S
Cu298       N306   2.090       .  S
N299        N300   1.325       .  A
N299        C303   1.341       .  A
N300        C301   1.350       .  A
C301        C302   1.384       .  A
C301        H304   1.081       .  S
C302        C303   1.376       .  A
C302        C726   1.467       .  S
C303        H305   1.082       .  S
N306        N307   1.323       .  A
N306        C310   1.349       .  A
N307        C308   1.344       .  A
C308        C309   1.377       .  A
C308        H311   1.082       .  S
C309        C310   1.383       .  A
C309        C772   1.440   1_545  S
C310        H312   1.081       .  S
N313        N314   1.321       .  A
N313        C317   1.342       .  A
N313       Cu321   2.063       .  S
N314        C315   1.347       .  A
N314       Cu320   2.066       .  S
C315        C316   1.381       .  A
C315        H318   1.082       .  S
C316        C317   1.378       .  A
C316        C778   1.435       .  S
C317        H319   1.082       .  S
Cu320       N323   2.067       .  S
Cu321       N331   2.064       .  S
Cu322       N324   2.091       .  S
Cu322       N330   2.090       .  S
N323        N324   1.325       .  A
N323        C327   1.341       .  A
N324        C325   1.350       .  A
C325        C326   1.384       .  A
C325        H328   1.081       .  S
C326        C327   1.377       .  A
C327        H329   1.082       .  S
N330        N331   1.323       .  A
N330        C334   1.349       .  A
N331        C332   1.344       .  A
C332        C333   1.377       .  A
C332        H335   1.082       .  S
C333        C334   1.383       .  A
C333        C769   1.440   1_545  S
C334        H336   1.081       .  S
N337        N338   1.321       .  A
N337        C341   1.342       .  A
N337       Cu345   2.063       .  S
N338        C339   1.347       .  A
N338       Cu344   2.066       .  S
C339        C340   1.381       .  A
C339        H342   1.082       .  S
C340        C341   1.378       .  A
C340        C776   1.435       .  S
C341        H343   1.082       .  S
Cu344       N347   2.067       .  S
Cu345       N355   2.063       .  S
Cu346       N348   2.090       .  S
Cu346       N354   2.090       .  S
N347        N348   1.325       .  A
N347        C351   1.341       .  A
N348        C349   1.350       .  A
C349        C350   1.384       .  A
C349        H352   1.081       .  S
C350        C351   1.377       .  A
C351        H353   1.082       .  S
N354        N355   1.323       .  A
N354        C358   1.349       .  A
N355        C356   1.344       .  A
C356        C357   1.377       .  A
C356        H359   1.082       .  S
C357        C358   1.383       .  A
C357        C768   1.439   1_545  S
C358        H360   1.081       .  S
N361        N362   1.321       .  A
N361        C365   1.342       .  A
N361       Cu369   2.063       .  S
N362        C363   1.347       .  A
N362       Cu368   2.065       .  S
C363        C364   1.380       .  A
C363        H366   1.082       .  S
C364        C365   1.378       .  A
C364        C780   1.434       .  S
C365        H367   1.082       .  S
Cu368       N371   2.066       .  S
Cu369       N379   2.064       .  S
Cu370       N372   2.091       .  S
Cu370       N378   2.090       .  S
N371        N372   1.325       .  A
N371        C375   1.341       .  A
N372        C373   1.350       .  A
C373        C374   1.384       .  A
C373        H376   1.081       .  S
C374        C375   1.376       .  A
C375        H377   1.082       .  S
N378        N379   1.323       .  A
N378        C382   1.349       .  A
N379        C380   1.344       .  A
C380        C381   1.377       .  A
C380        H383   1.082       .  S
C381        C382   1.383       .  A
C381        C765   1.440   1_545  S
C382        H384   1.081       .  S
O385       Cu393   1.995       .  S
O385        C395   1.275       .  A
O386       Cu393   1.995       .  S
O386        C396   1.275       .  A
O387       Cu393   1.995       .  S
O387        C397   1.275       .  A
O388       Cu393   1.995       .  S
O388        C398   1.275       .  A
O389       Cu394   2.019       .  S
O389        C398   1.278       .  A
O390       Cu394   2.019       .  S
O390        C397   1.278       .  A
O391       Cu394   2.019       .  S
O391        C396   1.278       .  A
O392       Cu394   2.020       .  S
O392        C395   1.278       .  A
Cu393      Cu394   2.380       .  S
C395        C763   1.433       .  S
C396        C757   1.433       .  S
C397        C759   1.433       .  S
C398        C761   1.433       .  S
N399        N400   1.321       .  A
N399        C403   1.342       .  A
N399       Cu407   2.063       .  S
N400        C401   1.347       .  A
N400       Cu406   2.065       .  S
C401        C402   1.380       .  A
C401        H404   1.082       .  S
C402        C403   1.378       .  A
C402        C758   1.435       .  S
C403        H405   1.082       .  S
Cu406       N409   2.066       .  S
Cu407       N417   2.064       .  S
Cu408       N410   2.091       .  S
Cu408       N416   2.090       .  S
N409        N410   1.325       .  A
N409        C413   1.341       .  A
N410        C411   1.350       .  A
C411        C412   1.384       .  A
C411        H414   1.081       .  S
C412        C413   1.376       .  A
C413        H415   1.082       .  S
N416        N417   1.323       .  A
N416        C420   1.349       .  A
N417        C418   1.344       .  A
C418        C419   1.377       .  A
C418        H421   1.082       .  S
C419        C420   1.383       .  A
C419        C771   1.440       .  S
C420        H422   1.081       .  S
N423        N424   1.321       .  A
N423        C427   1.342       .  A
N423       Cu431   2.063       .  S
N424        C425   1.347       .  A
N424       Cu430   2.066       .  S
C425        C426   1.381       .  A
C425        H428   1.082       .  S
C426        C427   1.378       .  A
C426        C762   1.435       .  S
C427        H429   1.082       .  S
Cu430       N433   2.067       .  S
Cu431       N441   2.064       .  S
Cu432       N434   2.090       .  S
Cu432       N440   2.090       .  S
N433        N434   1.325       .  A
N433        C437   1.341       .  A
N434        C435   1.350       .  A
C435        C436   1.384       .  A
C435        H438   1.081       .  S
C436        C437   1.377       .  A
C436        C499   1.468       .  S
C437        H439   1.082       .  S
N440        N441   1.323       .  A
N440        C444   1.349       .  A
N441        C442   1.344       .  A
C442        C443   1.377       .  A
C442        H445   1.082       .  S
C443        C444   1.383       .  A
C443        C770   1.440       .  S
C444        H446   1.081       .  S
N447        N448   1.321       .  A
N447        C451   1.342       .  A
N447       Cu455   2.063       .  S
N448        C449   1.347       .  A
N448       Cu454   2.065       .  S
C449        C450   1.380       .  A
C449        H452   1.082       .  S
C450        C451   1.378       .  A
C450        C760   1.434       .  S
C451        H453   1.082       .  S
Cu454       N457   2.066       .  S
Cu455       N465   2.064       .  S
Cu456       N458   2.090       .  S
Cu456       N464   2.090       .  S
N457        N458   1.325       .  A
N457        C461   1.341       .  A
N458        C459   1.350       .  A
C459        C460   1.384       .  A
C459        H462   1.081       .  S
C460        C461   1.376       .  A
C461        H463   1.082       .  S
N464        N465   1.323       .  A
N464        C468   1.349       .  A
N465        C466   1.344       .  A
C466        C467   1.377       .  A
C466        H469   1.082       .  S
C467        C468   1.383       .  A
C467        C767   1.439       .  S
C468        H470   1.081       .  S
N471        N472   1.321       .  A
N471        C475   1.342       .  A
N471       Cu479   2.063       .  S
N472        C473   1.347       .  A
N472       Cu478   2.066       .  S
C473        C474   1.381       .  A
C473        H476   1.082       .  S
C474        C475   1.378       .  A
C474        C764   1.435       .  S
C475        H477   1.082       .  S
Cu478       N481   2.067       .  S
Cu479       N489   2.064       .  S
Cu480       N482   2.090       .  S
Cu480       N488   2.090       .  S
N481        N482   1.325       .  A
N481        C485   1.341       .  A
N482        C483   1.350       .  A
C483        C484   1.384       .  A
C483        H486   1.081       .  S
C484        C485   1.377       .  A
C485        H487   1.082       .  S
N488        N489   1.323       .  A
N488        C492   1.349       .  A
N489        C490   1.344       .  A
C490        C491   1.377       .  A
C490        H493   1.082       .  S
C491        C492   1.383       .  A
C491        C766   1.440       .  S
C492        H494   1.081       .  S
C495        C496   1.402       .  A
C495        C500   1.402       .  A
C495        C665   1.468       .  S
C496        C497   1.402       .  A
C496        H501   1.084       .  S
C497        C498   1.402       .  A
C498        C499   1.402       .  A
C498        H502   1.084       .  S
C499        C500   1.402       .  A
C500        H503   1.084       .  S
O504       Cu512   1.995       .  S
O504        C514   1.275       .  A
O505       Cu512   1.995       .  S
O505        C515   1.275       .  A
O506       Cu512   1.995       .  S
O506        C516   1.275       .  A
O507       Cu512   1.995       .  S
O507        C517   1.275       .  A
O508       Cu513   2.019       .  S
O508        C517   1.278       .  A
O509       Cu513   2.020       .  S
O509        C516   1.278       .  A
O510       Cu513   2.019       .  S
O510        C515   1.278       .  A
O511       Cu513   2.019       .  S
O511        C514   1.278       .  A
Cu512      Cu513   2.380       .  S
C514        C755   1.433       .  S
C515        C750   1.433       .  S
C516        C752   1.433       .  S
C517        C754   1.433       .  S
N518        N519   1.321       .  A
N518        C522   1.342       .  A
N518       Cu526   2.063       .  S
N519        C520   1.347       .  A
N519       Cu525   2.065       .  S
C520        C521   1.380       .  A
C520        H523   1.082       .  S
C521        C522   1.378       .  A
C521        C749   1.435       .  S
C522        H524   1.082       .  S
Cu525       N528   2.066       .  S
Cu526       N536   2.064       .  S
Cu527       N529   2.090       .  S
Cu527       N535   2.090       .  S
N528        N529   1.325       .  A
N528        C532   1.341       .  A
N529        C530   1.350       .  A
C530        C531   1.384       .  A
C530        H533   1.081       .  S
C531        C532   1.376       .  A
C531        C728   1.467       .  S
C532        H534   1.082       .  S
N535        N536   1.323       .  A
N535        C539   1.349       .  A
N536        C537   1.344       .  A
C537        C538   1.377       .  A
C537        H540   1.082       .  S
C538        C539   1.383       .  A
C538        C747   1.440   1_455  S
C539        H541   1.081       .  S
N542        N543   1.321       .  A
N542        C546   1.342       .  A
N542       Cu550   2.063       .  S
N543        C544   1.347       .  A
N543       Cu549   2.066       .  S
C544        C545   1.381       .  A
C544        H547   1.082       .  S
C545        C546   1.378       .  A
C545        C753   1.435       .  S
C546        H548   1.082       .  S
Cu549       N552   2.067       .  S
Cu550       N560   2.064       .  S
Cu551       N553   2.090       .  S
Cu551       N559   2.089       .  S
N552        N553   1.325       .  A
N552        C556   1.341       .  A
N553        C554   1.350       .  A
C554        C555   1.384       .  A
C554        H557   1.081       .  S
C555        C556   1.377       .  A
C556        H558   1.082       .  S
N559        N560   1.323       .  A
N559        C563   1.349       .  A
N560        C561   1.344       .  A
C561        C562   1.377       .  A
C561        H564   1.082       .  S
C562        C563   1.383       .  A
C562        C746   1.439   1_455  S
C563        H565   1.081       .  S
N566        N567   1.321       .  A
N566        C570   1.342       .  A
N566       Cu574   2.063       .  S
N567        C568   1.347       .  A
N567       Cu573   2.066       .  S
C568        C569   1.381       .  A
C568        H571   1.082       .  S
C569        C570   1.378       .  A
C569        C751   1.435       .  S
C570        H572   1.082       .  S
Cu573       N576   2.067       .  S
Cu574       N584   2.064       .  S
Cu575       N577   2.090       .  S
Cu575       N583   2.089       .  S
N576        N577   1.325       .  A
N576        C580   1.341       .  A
N577        C578   1.350       .  A
C578        C579   1.384       .  A
C578        H581   1.081       .  S
C579        C580   1.377       .  A
C580        H582   1.082       .  S
N583        N584   1.323       .  A
N583        C587   1.349       .  A
N584        C585   1.344       .  A
C585        C586   1.377       .  A
C585        H588   1.082       .  S
C586        C587   1.383       .  A
C586        C743   1.439   1_455  S
C587        H589   1.081       .  S
N590        N591   1.321       .  A
N590        C594   1.342       .  A
N590       Cu598   2.063       .  S
N591        C592   1.347       .  A
N591       Cu597   2.066       .  S
C592        C593   1.381       .  A
C592        H595   1.082       .  S
C593        C594   1.378       .  A
C593        C756   1.435       .  S
C594        H596   1.082       .  S
Cu597       N600   2.067       .  S
Cu598       N608   2.063       .  S
Cu599       N601   2.091       .  S
Cu599       N607   2.090       .  S
N600        N601   1.325       .  A
N600        C604   1.341       .  A
N601        C602   1.350       .  A
C602        C603   1.384       .  A
C602        H605   1.081       .  S
C603        C604   1.376       .  A
C604        H606   1.082       .  S
N607        N608   1.323       .  A
N607        C611   1.349       .  A
N608        C609   1.344       .  A
C609        C610   1.377       .  A
C609        H612   1.082       .  S
C610        C611   1.383       .  A
C610        C741   1.440   1_455  S
C611        H613   1.081       .  S
O614       Cu622   2.020       .  S
O614        C624   1.278       .  A
O615       Cu622   2.020       .  S
O615        C625   1.278       .  A
O616       Cu622   2.019       .  S
O616        C626   1.277       .  A
O617       Cu622   2.019       .  S
O617        C627   1.278       .  A
O618       Cu623   1.995       .  S
O618        C627   1.275       .  A
O619       Cu623   1.995       .  S
O619        C626   1.275       .  A
O620       Cu623   1.995       .  S
O620        C625   1.275       .  A
O621       Cu623   1.995       .  S
O621        C624   1.275       .  A
Cu622      Cu623   2.380       .  S
C624        C739   1.433       .  S
C625        C733   1.433       .  S
C626        C735   1.433       .  S
C627        C737   1.433       .  S
N628        N629   1.321       .  A
N628        C632   1.342       .  A
N628       Cu636   2.063       .  S
N629        C630   1.347       .  A
N629       Cu635   2.066       .  S
C630        C631   1.381       .  A
C630        H633   1.082       .  S
C631        C632   1.378       .  A
C631        C734   1.435       .  S
C632        H634   1.082       .  S
Cu635       N638   2.067       .  S
Cu636       N646   2.064       .  S
Cu637       N639   2.091       .  S
Cu637       N645   2.090       .  S
N638        N639   1.325       .  A
N638        C642   1.341       .  A
N639        C640   1.350       .  A
C640        C641   1.384       .  A
C640        H643   1.081       .  S
C641        C642   1.376       .  A
C642        H644   1.082       .  S
N645        N646   1.323       .  A
N645        C649   1.349       .  A
N646        C647   1.344       .  A
C647        C648   1.377       .  A
C647        H650   1.082       .  S
C648        C649   1.383       .  A
C648        C748   1.440       .  S
C649        H651   1.081       .  S
N652        N653   1.321       .  A
N652        C656   1.342       .  A
N652       Cu660   2.062       .  S
N653        C654   1.347       .  A
N653       Cu659   2.066       .  S
C654        C655   1.381       .  A
C654        H657   1.082       .  S
C655        C656   1.378       .  A
C655        C738   1.435       .  S
C656        H658   1.082       .  S
Cu659       N662   2.067       .  S
Cu660       N670   2.063       .  S
Cu661       N663   2.090       .  S
Cu661       N669   2.090       .  S
N662        N663   1.325       .  A
N662        C666   1.341       .  A
N663        C664   1.350       .  A
C664        C665   1.384       .  A
C664        H667   1.081       .  S
C665        C666   1.377       .  A
C666        H668   1.082       .  S
N669        N670   1.323       .  A
N669        C673   1.349       .  A
N670        C671   1.343       .  A
C671        C672   1.377       .  A
C671        H674   1.082       .  S
C672        C673   1.383       .  A
C672        C745   1.439       .  S
C673        H675   1.081       .  S
N676        N677   1.321       .  A
N676        C680   1.342       .  A
N676       Cu684   2.062       .  S
N677        C678   1.347       .  A
N677       Cu683   2.066       .  S
C678        C679   1.381       .  A
C678        H681   1.082       .  S
C679        C680   1.378       .  A
C679        C736   1.435       .  S
C680        H682   1.082       .  S
Cu683       N686   2.067       .  S
Cu684       N694   2.063       .  S
Cu685       N687   2.091       .  S
Cu685       N693   2.090       .  S
N686        N687   1.325       .  A
N686        C690   1.341       .  A
N687        C688   1.350       .  A
C688        C689   1.384       .  A
C688        H691   1.081       .  S
C689        C690   1.377       .  A
C690        H692   1.082       .  S
N693        N694   1.323       .  A
N693        C697   1.349       .  A
N694        C695   1.343       .  A
C695        C696   1.377       .  A
C695        H698   1.082       .  S
C696        C697   1.383       .  A
C696        C744   1.439       .  S
C697        H699   1.081       .  S
N700        N701   1.321       .  A
N700        C704   1.342       .  A
N700       Cu708   2.063       .  S
N701        C702   1.347       .  A
N701       Cu707   2.065       .  S
C702        C703   1.380       .  A
C702        H705   1.082       .  S
C703        C704   1.378       .  A
C703        C740   1.435       .  S
C704        H706   1.082       .  S
Cu707       N710   2.066       .  S
Cu708       N718   2.064       .  S
Cu709       N711   2.090       .  S
Cu709       N717   2.090       .  S
N710        N711   1.325       .  A
N710        C714   1.341       .  A
N711        C712   1.350       .  A
C712        C713   1.384       .  A
C712        H715   1.081       .  S
C713        C714   1.376       .  A
C714        H716   1.082       .  S
N717        N718   1.323       .  A
N717        C721   1.349       .  A
N718        C719   1.344       .  A
C719        C720   1.377       .  A
C719        H722   1.082       .  S
C720        C721   1.383       .  A
C720        C742   1.440       .  S
C721        H723   1.081       .  S
C724        C725   1.402       .  A
C724        C729   1.402       .  A
C725        C726   1.402       .  A
C725        H730   1.084       .  S
C726        C727   1.402       .  A
C727        C728   1.402       .  A
C727        H731   1.084       .  S
C728        C729   1.402       .  A
C729        H732   1.084       .  S
C733        C734   1.204       .  T
C735        C736   1.204       .  T
C737        C738   1.204       .  T
C739        C740   1.204       .  T
C741        C742   1.207       .  T
C743        C744   1.207       .  T
C745        C746   1.207       .  T
C747        C748   1.207       .  T
C749        C750   1.204       .  T
C751        C752   1.204       .  T
C753        C754   1.204       .  T
C755        C756   1.204       .  T
C757        C758   1.204       .  T
C759        C760   1.204       .  T
C761        C762   1.204       .  T
C763        C764   1.205       .  T
C765        C766   1.207       .  T
C767        C768   1.207       .  T
C769        C770   1.207       .  T
C771        C772   1.207       .  T
C773        C774   1.204       .  T
C775        C776   1.205       .  T
C777        C778   1.204       .  T
C779        C780   1.204       .  T
C781        C782   1.204       .  T
C783        C784   1.204       .  T
C785        C786   1.204       .  T
C787        C788   1.205       .  T
C789        C790   1.207       .  T
C791        C792   1.207       .  T
C793        C794   1.207       .  T
C795        C796   1.207       .  T
C797        C798   1.204       .  T
C799        C800   1.204       .  T
C801        C802   1.205       .  T
C803        C804   1.204       .  T
