geometry optimzed in LAMMPS
_audit_creation_date              2020-12-01 
_audit_creation_method            'lammps2cif' 
_symmetry_space_group_name_H-M    'P1' 
_symmetry_Int_Tables_number       1 
_symmetry_cell_setting            triclinic 
loop_ 
_symmetry_equiv_pos_as_xyz 
  x,y,z 
_cell_length_a                    52.03992063 
_cell_length_b                    51.97225807030591 
_cell_length_c                    38.92097797182365 
_cell_angle_alpha                 90.22528054310244 
_cell_angle_beta                  90.07046806635788 
_cell_angle_gamma                 89.8196957670096 
loop_ 
_atom_site_label 
_atom_site_type_symbol 
_atom_site_fract_x 
_atom_site_fract_y 
_atom_site_fract_z 
_atom_site_charge 
N1          N  0.01756096  0.75682135  0.48745966    -0.03400
C2          C  0.02233156  0.73135205  0.48305871    -0.00800
C3          C  0.02600365  0.72094463  0.01872250    -0.23700
C4          C  0.02456669  0.74059682  0.04232448    -0.23900
C5          C  0.01825706  0.76248905  0.02419797    -0.00900
H6          H  0.03014535  0.70095246  0.02416475     0.12900
H7          H  0.02784468  0.73914740  0.06971177     0.12900
N8          N  0.00172619  0.23065812  0.02465329    -0.03400
C9          C  0.00659820  0.25635723  0.02512859    -0.00800
C10         C  0.99160450  0.26579089  0.49900769    -0.23700
C11         C  0.98310148  0.24651575  0.47782950    -0.23900
C12         C  0.98482797  0.22397647  0.49637270    -0.00900
H13         H  0.99211289  0.28609133  0.49296331     0.12900
H14         H  0.97647625  0.24866012  0.45162686     0.12900
N15         N  0.72994009  0.02061717  0.48550086    -0.03400
C16         C  0.75578383  0.01626857  0.48454445    -0.00800
C17         C  0.76738827  0.02038068  0.01665287    -0.23700
C18         C  0.74769723  0.02824514  0.03739973    -0.23900
C19         C  0.72560316  0.02781976  0.01767566    -0.00900
H20         H  0.78732974  0.01828233  0.02410411     0.12900
H21         H  0.74918766  0.03293098  0.06444443     0.12900
N22         N  0.25902300  0.97596843  0.02421310    -0.03400
C23         C  0.23319953  0.97228093  0.02590831    -0.00800
C24         C  0.22542261  0.95982939  0.49718317    -0.23700
C25         C  0.24538491  0.95747183  0.47439737    -0.23900
C26         C  0.26737785  0.96466500  0.49183391    -0.00900
H27         H  0.20543684  0.95554190  0.49208427     0.12900
H28         H  0.24408312  0.95097141  0.44800199     0.12900
N29         N  0.51592626  0.74012388  0.48585477    -0.03400
C30         C  0.52059885  0.76581909  0.48335285    -0.00800
C31         C  0.52255373  0.77898023  0.01549471    -0.23700
C32         C  0.51528537  0.76028707  0.03816866    -0.23900
C33         C  0.51448046  0.73754120  0.01982566    -0.00900
H34         H  0.52375085  0.79936011  0.02104461     0.12900
H35         H  0.51049495  0.76305609  0.06498332     0.12900
N36         N  0.48822455  0.26605634  0.02098514    -0.03400
C37         C  0.49182835  0.24039075  0.02458554    -0.00800
C38         C  0.50059245  0.23087174  0.49749213    -0.23700
C39         C  0.50288587  0.25014588  0.47365347    -0.23900
C40         C  0.49688812  0.27282835  0.49042733    -0.00900
H41         H  0.50469657  0.21066416  0.49339869     0.12900
H42         H  0.50909455  0.24799937  0.44726852     0.12900
N43         N  0.23667708  0.50451698  0.01691528    -0.03400
C44         C  0.26219985  0.49930796  0.01899042    -0.00800
C45         C  0.27413129  0.50747554  0.48838118    -0.23700
C46         C  0.25517430  0.51422429  0.46559095    -0.23900
C47         C  0.23230996  0.51417361  0.48365410    -0.00900
H48         H  0.29449831  0.50630825  0.48298880     0.12900
H49         H  0.25775472  0.51855162  0.43864352     0.12900
N50         N  0.76479310  0.48134025  0.47588712    -0.03400
C51         C  0.73866311  0.48174772  0.47548693    -0.00800
C52         C  0.72970806  0.47300868  0.00201507    -0.23700
C53         C  0.75050100  0.46594706  0.02143423    -0.23900
C54         C  0.77204108  0.47297135  0.00310909    -0.00900
H55         H  0.70972794  0.47017389  0.00865379     0.12900
H56         H  0.74998206  0.45724782  0.04664000     0.12900
O57         O  0.48287231  0.51721036  0.19177621    -0.88300
C58         C  0.47109453  0.54905342  0.28567470     0.87800
Mg59       Mg  0.47131208  0.47875293  0.17978088     1.58100
O60         O  0.53507919  0.53228412  0.26831784    -0.88000
O61         O  0.51753068  0.54118378  0.19205969    -0.75300
C62         C  0.51136918  0.41082953  0.31419756     0.92800
O63         O  0.43682808  0.50766508  0.24413712    -0.75100
O64         O  0.49503444  0.40934021  0.28987008    -0.82600
Mg65       Mg  0.45446513  0.54164939  0.21454425     1.58000
C66         C  0.58021785  0.49368402  0.33576655     0.92700
O67         O  0.46969184  0.57663245  0.18353473    -0.80900
H68         H  0.56568039  0.53426195  0.23741699    -0.06200
C69         C  0.49375694  0.48105023  0.32334833     0.87700
O70         O  0.51233142  0.46405392  0.18904843    -0.75400
O71         O  0.48043654  0.54876257  0.25642568    -0.88200
O72         O  0.56668505  0.51417775  0.33401841    -0.81000
C73         C  0.52767398  0.58911773  0.32284828     0.92900
C74         C  0.48453616  0.59587628  0.18814444     0.92700
Mg75       Mg  0.54137210  0.46420642  0.28474595     1.58000
O76         O  0.52707454  0.42958751  0.31648245    -0.80900
O77         O  0.55814404  0.49822433  0.25449669    -0.75200
O78         O  0.51896412  0.59005652  0.29212817    -0.77800
O79         O  0.42485296  0.53353289  0.17242676    -0.82700
O80         O  0.47626230  0.41585274  0.21047164    -0.81000
C81         C  0.55355308  0.52228279  0.25318216     0.87100
O82         O  0.51482622  0.45674859  0.24441315    -0.88200
O83         O  0.51346319  0.48857146  0.30873588    -0.88300
O84         O  0.47813638  0.46555855  0.30906141    -0.75300
Mg85       Mg  0.51722310  0.56401974  0.24310091     1.58000
O86         O  0.53470645  0.56786182  0.33602831    -0.82700
H87         H  0.50735118  0.51799811  0.15221251    -0.06400
O88         O  0.46074480  0.47379632  0.23244756    -0.88000
H89         H  0.42918184  0.47172668  0.26157013    -0.06200
H90         H  0.54363553  0.44850078  0.21222330    -0.06400
C91         C  0.44168670  0.48369568  0.24632355     0.87100
C92         C  0.50251571  0.52521217  0.17748939     0.87700
C93         C  0.52428328  0.45575645  0.21527194     0.87800
H94         H  0.48927205  0.48852002  0.34861187    -0.06400
O95         O  0.48354716  0.54105081  0.31171189    -0.75400
Mg96       Mg  0.47798715  0.44217344  0.25879803     1.58000
H97         H  0.45153873  0.55564773  0.28904911    -0.06400
C98         C  0.41681999  0.51162937  0.16230750     0.92700
O99         O  0.46105804  0.43773587  0.16570910    -0.82700
C100        C  0.46794565  0.41666726  0.17959850     0.92800
O101        O  0.49950172  0.59708643  0.21398790    -0.82600
Mg102      Mg  0.52495400  0.52680571  0.32106360     1.58200
O103        O  0.43009702  0.49120993  0.16629165    -0.81000
O104        O  0.57175197  0.47220318  0.32486393    -0.82700
O105        O  0.50448180  0.02114977  0.19403962    -0.88300
C106        C  0.53628479  0.03445320  0.28766908     0.87800
Mg107      Mg  0.46457237  0.02706649  0.18365798     1.58100
O108        O  0.52959847  0.96920041  0.26726066    -0.88000
O109        O  0.53322157  0.99010611  0.19163547    -0.75300
C110        C  0.40645478  0.97123446  0.31611554     0.92800
O111        O  0.48882211  0.06260519  0.25095376    -0.75100
O112        O  0.40229408  0.98817773  0.29322865    -0.82600
Mg113      Mg  0.52448182  0.05176422  0.21900670     1.58000
C114        C  0.50004430  0.91763003  0.33476526     0.92700
O115        O  0.56045572  0.04367009  0.18538802    -0.80900
H116        H  0.53646833  0.93970051  0.23541363    -0.06200
C117        C  0.47304948  0.00062687  0.32583419     0.87700
O118        O  0.45732588  0.98377346  0.19074934    -0.75400
O119        O  0.53650966  0.02576263  0.25802604    -0.88200
O120        O  0.51814663  0.93406019  0.33269531    -0.81000
C121        C  0.58519971  0.98503797  0.31996573     0.92900
C122        C  0.58181665  0.03166752  0.18752079     0.92700
Mg123      Mg  0.46406987  0.95173979  0.28492186     1.58000
O124        O  0.42767767  0.95890772  0.31746442    -0.80900
O125        O  0.49990392  0.94106068  0.25337828    -0.75200
O126        O  0.58388398  0.99368849  0.28936163    -0.81000
O127        O  0.51112897  0.08124890  0.18067660    -0.82700
O128        O  0.40452292  0.00929355  0.21479591    -0.81000
C129        C  0.52278220  0.94950920  0.25176305     0.87100
O130        O  0.45193365  0.97794528  0.24607054    -0.88200
O131        O  0.48363282  0.98276303  0.31006687    -0.88300
O132        O  0.45490844  0.01381046  0.31268614    -0.75300
Mg133      Mg  0.55712116  0.99240829  0.24154114     1.58000
O134        O  0.56600829  0.97388874  0.33367205    -0.82700
H135        H  0.50800092  0.99793538  0.15319826    -0.06400
O136        O  0.45877578  0.03473930  0.23714509    -0.88000
H137        H  0.45238473  0.06411601  0.26939075    -0.06200
H138        H  0.44847474  0.94930577  0.21192753    -0.06400
C139        C  0.46587976  0.05429106  0.25277786     0.87100
C140        C  0.51498672  0.00315511  0.17844723     0.87700
C141        C  0.45211357  0.96952381  0.21627597     0.87800
H142        H  0.47997559  0.00568930  0.35116623    -0.06400
O143        O  0.53080877  0.02048646  0.31335316    -0.75400
Mg144      Mg  0.43117296  0.01136184  0.26281117     1.58000
H145        H  0.54001682  0.05468804  0.29170853    -0.06400
C146        C  0.48853988  0.08670489  0.17049158     0.92700
O147        O  0.42210374  0.03074925  0.17130076    -0.82700
C148        C  0.40342862  0.01840056  0.18437820     0.92800
O149        O  0.58608300  0.01585898  0.21180902    -0.82600
Mg150      Mg  0.52356889  0.97728204  0.32071736     1.58200
O151        O  0.47011911  0.07058074  0.17220878    -0.81000
O152        O  0.47748386  0.92248580  0.32387973    -0.82700
O153        O  0.01406527  0.98108654  0.20215491    -0.88300
C154        C  0.02730831  0.95002079  0.29660327     0.87800
Mg155      Mg  0.02228498  0.02018748  0.18926105     1.58100
O156        O  0.96213476  0.96064105  0.27904097    -0.88000
O157        O  0.98116931  0.95454960  0.20256945    -0.75300
C158        C  0.97417999  0.08436902  0.32252692     0.92800
O159        O  0.05760738  0.99546635  0.25707900    -0.75100
O160        O  0.98989504  0.08774980  0.29793622    -0.82600
Mg161      Mg  0.04395804  0.95986607  0.22719243     1.58000
C162        C  0.91546028  0.99696472  0.34919959     0.92700
O163        O  0.03348135  0.92397604  0.19569946    -0.80900
H164        H  0.93147707  0.95528099  0.24886811    -0.06200
C165        C  0.99928214  0.01631029  0.33286719     0.87700
O166        O  0.97982360  0.03082294  0.19790021    -0.75400
O167        O  0.01797255  0.95037878  0.26737416    -0.88200
O168        O  0.92941247  0.97674584  0.34669556    -0.81000
C169        C  0.97599081  0.90523047  0.33230655     0.92900
C170        C  0.02013982  0.90355462  0.19807654     0.92700
Mg171      Mg  0.95031279  0.02785794  0.29415725     1.58000
O172        O  0.96111524  0.06379724  0.32513619    -0.80900
O173        O  0.93610171  0.99220513  0.26477984    -0.75200
O174        O  0.98451515  0.90552864  0.30152291    -0.81000
O175        O  0.07334152  0.96999102  0.18722980    -0.82700
O176        O  0.00986919  0.08246736  0.21873479    -0.81000
C177        C  0.94267907  0.96861550  0.26407282     0.87100
O178        O  0.97597131  0.03728559  0.25331751    -0.88200
O179        O  0.98028050  0.00652324  0.31878649    -0.88300
O180        O  0.01280675  0.03347919  0.31826490    -0.75300
Mg181      Mg  0.98326178  0.93134002  0.25289139     1.58000
O182        O  0.96607329  0.92522293  0.34617208    -0.82700
H183        H  0.98944558  0.97828974  0.16283046    -0.06400
O184        O  0.03181041  0.02706048  0.24209430    -0.88000
H185        H  0.06201215  0.03238133  0.27308882    -0.06200
H186        H  0.94669085  0.04245909  0.22072007    -0.06400
C187        C  0.05104146  0.01906044  0.25756843     0.87100
C188        C  0.99498118  0.97150055  0.18800640     0.87700
C189        C  0.96669024  0.03736749  0.22404174     0.87800
H190        H  0.00492970  0.00961730  0.35804474    -0.06400
O191        O  0.01430144  0.95654550  0.32284180    -0.75400
Mg192      Mg  0.01069380  0.05655765  0.26769336     1.58000
H193        H  0.04727419  0.94474729  0.29979116    -0.06400
C194        C  0.07980556  0.99153865  0.17463667     0.92700
O195        O  0.02845040  0.06198692  0.17484709    -0.82700
C196        C  0.01889060  0.08231754  0.18816701     0.92800
O197        O  0.00405661  0.90031148  0.22229058    -0.82600
Mg198      Mg  0.97197662  0.96732232  0.33184654     1.58200
O199        O  0.06492741  0.01111988  0.17560912    -0.81000
O200        O  0.92185684  0.01810292  0.33540270    -0.82700
O201        O  0.98821038  0.48230008  0.18778978    -0.88300
C202        C  0.95397126  0.46851423  0.27945845     0.87800
Mg203      Mg  0.02737566  0.47322938  0.17708235     1.58100
O204        O  0.96624638  0.53352867  0.26417602    -0.88000
O205        O  0.96245212  0.51593329  0.18714152    -0.75300
C206        C  0.08911264  0.51994273  0.31293875     0.92800
O207        O  0.00003380  0.43783359  0.24187328    -0.75100
O208        O  0.09207905  0.50366787  0.28874531    -0.82600
Mg209      Mg  0.96561729  0.45251564  0.21027003     1.58000
C210        C  0.99996198  0.57977375  0.33536671     0.92700
O211        O  0.93127677  0.46437574  0.17727866    -0.80900
H212        H  0.96217424  0.56464461  0.23461469    -0.06200
C213        C  0.02012945  0.49523347  0.32048566     0.87700
O214        O  0.03827163  0.51553363  0.18684508    -0.75400
O215        O  0.95492997  0.47822692  0.25051846    -0.88200
O216        O  0.98034424  0.56524748  0.33234694    -0.81000
C217        C  0.90890321  0.52121823  0.31402509     0.92900
C218        C  0.91139745  0.47868983  0.17740891     0.92700
Mg219      Mg  0.03308292  0.54451334  0.28324551     1.58000
O220        O  0.06870320  0.53348002  0.31552553    -0.80900
O221        O  0.99843263  0.55926188  0.25242078    -0.75200
O222        O  0.90949510  0.51344154  0.28276322    -0.81000
O223        O  0.97654366  0.42340254  0.16963785    -0.82700
O224        O  0.08835020  0.48566733  0.20865468    -0.81000
C225        C  0.97487040  0.55305468  0.25023456     0.87100
O226        O  0.04328360  0.51892942  0.24259754    -0.88200
O227        O  0.01093627  0.51443728  0.30615367    -0.88300
O228        O  0.03747657  0.48138910  0.30649404    -0.75300
Mg229      Mg  0.93730948  0.51389516  0.23570027     1.58000
O230        O  0.92914017  0.52922960  0.32904741    -0.82700
H231        H  0.98763198  0.50738263  0.14897121    -0.06400
O232        O  0.03237908  0.46339105  0.22984273    -0.88000
H233        H  0.03616706  0.43274808  0.26036911    -0.06200
H234        H  0.04961805  0.54836351  0.21079009    -0.06400
C235        C  0.02359859  0.44411039  0.24427494     0.87100
C236        C  0.97967429  0.50179500  0.17347377     0.87700
C237        C  0.04423060  0.52840812  0.21351221     0.87800
H238        H  0.01270736  0.48966446  0.34529669    -0.06400
O239        O  0.96048208  0.48092958  0.30625340    -0.75400
Mg240      Mg  0.06160936  0.48371945  0.25687753     1.58000
H241        H  0.94833681  0.44860405  0.28187452    -0.06400
C242        C  0.99865191  0.41653626  0.15917526     0.92700
O243        O  0.06921246  0.46603464  0.16460914    -0.82700
C244        C  0.08865814  0.47712952  0.17778345     0.92800
O245        O  0.90708664  0.49464055  0.20172712    -0.82600
Mg246      Mg  0.97136538  0.52294478  0.31690660     1.58200
O247        O  0.01834133  0.43083801  0.16306706    -0.81000
O248        O  0.02189809  0.57329428  0.32380653    -0.82700
C249        C  0.82796798  0.45009088  0.05633166    -0.11300
C250        C  0.83990038  0.47358133  0.06371362     0.15200
C251        C  0.83253916  0.49584978  0.04546675     0.02100
C252        C  0.81162556  0.49468304  0.02288729    -0.15700
C253        C  0.79819369  0.47162404  0.01782053    -0.10500
C254        C  0.80740641  0.44883041  0.03326272     0.08900
C255        C  0.85794068  0.47472690  0.09297340     0.09900
S256        S  0.84761624  0.52666879  0.05206851    -0.24800
H257        H  0.80474765  0.51224669  0.01109525     0.20200
S258        S  0.79299096  0.41781061  0.02565931    -0.30500
H259        H  0.83401014  0.43284907  0.06971795     0.10500
C260        C  0.84940751  0.48144396  0.12617994     0.03700
C261        C  0.86711695  0.48246902  0.15338853    -0.12800
C262        C  0.89328478  0.47710238  0.14797377    -0.08500
C263        C  0.90169142  0.47091319  0.11421067     0.07100
C264        C  0.88386229  0.46908742  0.08745368    -0.13500
S265        S  0.81589712  0.48859097  0.13381852    -0.30500
H266        H  0.86055872  0.48741044  0.17896773     0.11400
S267        S  0.93501760  0.46733305  0.10264528    -0.27600
H268        H  0.89038541  0.46428696  0.06176821     0.08600
H269        H  0.78285581  0.42382253  0.99313828     0.27000
H270        H  0.81802304  0.49281753  0.16942497     0.21800
H271        H  0.94281897  0.48918494  0.12127649     0.27200
H272        H  0.87198673  0.51701009  0.06081725     0.16000
C273        C  0.85970373  0.52371580  0.38711139    -0.11300
C274        C  0.84032846  0.50768857  0.37424866     0.15200
C275        C  0.84206233  0.49889081  0.33992392     0.02100
C276        C  0.86412598  0.50433249  0.32055579    -0.15700
C277        C  0.88434101  0.51935962  0.33397603    -0.10500
C278        C  0.88117780  0.53016013  0.36733286     0.08900
C279        C  0.81925082  0.50009629  0.39796959     0.09900
S280        S  0.81694837  0.48054157  0.31936638    -0.24800
H281        H  0.86560523  0.49629656  0.29490638     0.20200
S282        S  0.90329670  0.55263151  0.38646968    -0.30500
H283        H  0.85814448  0.53120919  0.41306890     0.10500
C284        C  0.81667539  0.47455152  0.40972430     0.03700
C285        C  0.79804042  0.46883078  0.43459050    -0.12800
C286        C  0.78225046  0.48809651  0.44863401    -0.08500
C287        C  0.78499675  0.51364571  0.43711129     0.07100
C288        C  0.80314477  0.51930307  0.41166028    -0.13500
S289        S  0.83818990  0.44950267  0.39496575    -0.30500
H290        H  0.79607919  0.44936314  0.44396412     0.11400
S291        S  0.76723727  0.54004303  0.45552676    -0.27600
H292        H  0.80541806  0.53903947  0.40334378     0.08600
H293        H  0.90622656  0.56706700  0.35620531     0.27000
H294        H  0.82669585  0.42913050  0.41293708     0.21800
H295        H  0.76661736  0.52986727  0.48888878     0.27200
H296        H  0.79669473  0.48975051  0.33991732     0.16000
C297        C  0.67998777  0.50889913  0.43191737    -0.11300
C298        C  0.68051171  0.49557933  0.40063938     0.15200
C299        C  0.70302823  0.48198101  0.39118467     0.02100
C300        C  0.72324093  0.47959590  0.41494037    -0.15700
C301        C  0.72159303  0.49101456  0.44762533    -0.10500
C302        C  0.70024725  0.50701069  0.45528930     0.08900
C303        C  0.65614176  0.49416958  0.38090606     0.09900
S304        S  0.70645695  0.46614999  0.35013779    -0.24800
H305        H  0.73952094  0.46740660  0.40868115     0.20200
S306        S  0.69765238  0.52701170  0.99423332    -0.30500
H307        H  0.66301087  0.51985265  0.43896946     0.10500
C308        C  0.64106843  0.47166809  0.38091576     0.03700
C309        C  0.61656837  0.47207333  0.36581350    -0.12800
C310        C  0.60659953  0.49452609  0.35062183    -0.08500
C311        C  0.62230837  0.51676835  0.34954950     0.07100
C312        C  0.64653827  0.51647089  0.36529602    -0.13500
S313        S  0.65232280  0.44280731  0.40197409    -0.30500
H314        H  0.60483770  0.45492658  0.36664795     0.11400
S315        S  0.61324798  0.54579341  0.32738264    -0.27600
H316        H  0.65812066  0.53376563  0.36525635     0.08600
H317        H  0.72380574  0.52699268  0.00293275     0.27000
H318        H  0.63188395  0.42681937  0.39185877     0.21800
H319        H  0.60340774  0.53282880  0.29843141     0.27200
H320        H  0.68861117  0.48158275  0.33247873     0.16000
C321        C  0.15279420  0.51625555  0.36131993    -0.11300
C322        C  0.14492988  0.52229416  0.39484374     0.15200
C323        C  0.11908235  0.52914661  0.40091055     0.02100
C324        C  0.10154465  0.52885429  0.37355853    -0.15700
C325        C  0.10922243  0.52231679  0.33992676    -0.10500
C326        C  0.13544170  0.51650148  0.33383545     0.08900
C327        C  0.16458898  0.52182816  0.42234683     0.09900
S328        S  0.10711052  0.53795787  0.44286155    -0.24800
H329        H  0.08157909  0.53333872  0.37880209     0.20200
S330        S  0.14831688  0.51005080  0.29166706    -0.30500
H331        H  0.17277376  0.51152913  0.35649029     0.10500
C332        C  0.16717829  0.50086889  0.44500264     0.03700
C333        C  0.18845184  0.49976014  0.46727497    -0.12800
C334        C  0.20714245  0.51919507  0.46712897    -0.08500
C335        C  0.20344081  0.54097596  0.44591686     0.07100
C336        C  0.18239496  0.54190770  0.42367288    -0.13500
S337        S  0.14451136  0.47466685  0.44366963    -0.30500
H338        H  0.19146059  0.48290220  0.48302232     0.11400
S339        S  0.22530110  0.56787719  0.44479637    -0.27600
H340        H  0.18022555  0.55813978  0.40649970     0.08600
H341        H  0.13316599  0.52875417  0.27511269     0.27000
H342        H  0.15482963  0.46091013  0.47155207     0.21800
H343        H  0.23793366  0.56022475  0.97536702     0.27200
H344        H  0.13046606  0.54678222  0.45658033     0.16000
C345        C  0.13183037  0.49011240  0.10076989    -0.11300
C346        C  0.15635450  0.48846213  0.11540938     0.15200
C347        C  0.15867357  0.48348000  0.15099653     0.02100
C348        C  0.13643305  0.47963272  0.17078132    -0.15700
C349        C  0.11178878  0.48107204  0.15600919    -0.10500
C350        C  0.10967784  0.48694781  0.12054829     0.08900
C351        C  0.17876189  0.49254394  0.09248937     0.09900
S352        S  0.18927677  0.48192089  0.17274865    -0.24800
H353        H  0.13839475  0.47555017  0.19794371     0.20200
S354        S  0.07939033  0.49229910  0.09911952    -0.30500
H355        H  0.12992815  0.49441723  0.07364400     0.10500
C356        C  0.19436898  0.47194664  0.08123584     0.03700
C357        C  0.21394702  0.47655892  0.05721507    -0.12800
C358        C  0.21797232  0.50124889  0.04381551    -0.08500
C359        C  0.20274884  0.52192028  0.05578148     0.07100
C360        C  0.18319305  0.51733083  0.07963967    -0.13500
S361        S  0.18842578  0.43960780  0.09594441    -0.30500
H362        H  0.22565182  0.46080854  0.04779354     0.11400
S363        S  0.20756409  0.55454032  0.04189955    -0.27600
H364        H  0.17123290  0.53319900  0.08822117     0.08600
H365        H  0.06867054  0.50673608  0.12622319     0.27000
H366        H  0.20827717  0.42765516  0.07721426     0.21800
H367        H  0.23402756  0.55184258  0.03572665     0.27200
H368        H  0.20279854  0.49785770  0.15003406     0.16000
C369        C  0.35627597  0.52391350  0.10954289    -0.11300
C370        C  0.34094116  0.50303747  0.11935040     0.15200
C371        C  0.35056071  0.48533330  0.14357348     0.02100
C372        C  0.37539137  0.48856581  0.15679698    -0.15700
C373        C  0.39095561  0.50927029  0.14664253    -0.10500
C374        C  0.38117361  0.52703958  0.12250892     0.08900
C375        C  0.31691115  0.49842558  0.09984394     0.09900
S376        S  0.33215174  0.45824029  0.15846132    -0.24800
H377        H  0.38254311  0.47489166  0.17549416     0.20200
S378        S  0.40005340  0.55273824  0.10487132    -0.30500
H379        H  0.34926297  0.53714429  0.09018766     0.10500
C380        C  0.29592007  0.51560600  0.10144177     0.03700
C381        C  0.27623935  0.51376978  0.07681635    -0.12800
C382        C  0.27726058  0.49503843  0.05076299    -0.08500
C383        C  0.29678904  0.47610248  0.05180981     0.07100
C384        C  0.31652941  0.47816964  0.07599942    -0.13500
S385        S  0.29488812  0.54058367  0.13376034    -0.30500
H386        H  0.26123505  0.52820241  0.07623047     0.11400
S387        S  0.29826909  0.44963286  0.02175861    -0.27600
H388        H  0.33239356  0.46462068  0.07512186     0.08600
H389        H  0.42345522  0.53912658  0.10514841     0.27000
H390        H  0.27020364  0.54985019  0.12557864     0.21800
H391        H  0.27176329  0.44923852  0.01461808     0.27200
H392        H  0.30783695  0.46934935  0.15289129     0.16000
C393        C  0.49254513  0.15863065  0.15531738    -0.11300
C394        C  0.48090874  0.16072989  0.12296252     0.15200
C395        C  0.46977362  0.13863368  0.10772265     0.02100
C396        C  0.47086789  0.11501291  0.12490569    -0.15700
C397        C  0.48382231  0.11265145  0.15634332    -0.10500
C398        C  0.49394708  0.13497673  0.17224189     0.08900
C399        C  0.48367118  0.18518239  0.10390218     0.09900
S400        S  0.45554014  0.13879936  0.06542455    -0.24800
H401        H  0.46304781  0.09802500  0.11255696     0.20200
S402        S  0.50885693  0.13458765  0.21410507    -0.30500
H403        H  0.50109613  0.17547970  0.16712925     0.10500
C404        C  0.46248371  0.20075001  0.09482060     0.03700
C405        C  0.46593471  0.22081605  0.07111006    -0.12800
C406        C  0.49019740  0.22555203  0.05677213    -0.08500
C407        C  0.51171287  0.21160970  0.06878594     0.07100
C408        C  0.50821284  0.19158663  0.09204608    -0.13500
S409        S  0.43103465  0.19431465  0.11223772    -0.30500
H410        H  0.44949529  0.23160699  0.06198885     0.11400
S411        S  0.54395315  0.21731896  0.05372124    -0.27600
H412        H  0.52462053  0.18000843  0.09959556     0.08600
H413        H  0.49315463  0.11505478  0.22745119     0.27000
H414        H  0.41821280  0.21463004  0.09560207     0.21800
H415        H  0.53996638  0.24315512  0.04481893     0.27200
H416        H  0.47263564  0.15660489  0.05095728     0.16000
C417        C  0.50014865  0.34932323  0.36520934    -0.11300
C418        C  0.50496107  0.35798660  0.39878345     0.15200
C419        C  0.51334559  0.38344709  0.40410326     0.02100
C420        C  0.51640565  0.39975118  0.37586072    -0.15700
C421        C  0.51084237  0.39144564  0.34218576    -0.10500
C422        C  0.50300442  0.36568825  0.33684573     0.08900
C423        C  0.50255070  0.33932885  0.42724476     0.09900
S424        S  0.52001776  0.39640788  0.44624747    -0.24800
H425        H  0.52226454  0.41946056  0.38044936     0.20200
S426        S  0.49772298  0.35303515  0.29409807    -0.30500
H427        H  0.49431091  0.32954062  0.36134093     0.10500
C428        C  0.47834673  0.33097808  0.43892011     0.03700
C429        C  0.47696834  0.31052423  0.46231299    -0.12800
C430        C  0.49933204  0.29830062  0.47411208    -0.08500
C431        C  0.52358093  0.30779952  0.46396108     0.07100
C432        C  0.52491073  0.32818066  0.44068771    -0.13500
S433        S  0.44926039  0.34570734  0.42291580    -0.30500
H434        H  0.45844238  0.30294759  0.46965482     0.11400
S435        S  0.55354224  0.29372739  0.47792919    -0.27600
H436        H  0.54352402  0.33470892  0.43186069     0.08600
H437        H  0.49193149  0.32765734  0.30376208     0.27000
H438        H  0.43205337  0.33126896  0.44287954     0.21800
H439        H  0.54405063  0.28243742  0.50796986     0.27200
H440        H  0.50267762  0.38080380  0.46428954     0.16000
C441        C  0.45583585  0.31619576  0.07553572    -0.11300
C442        C  0.47666185  0.32528387  0.09496702     0.15200
C443        C  0.50089293  0.31321499  0.09155696     0.02100
C444        C  0.50388370  0.29297801  0.06809412    -0.15700
C445        C  0.48333835  0.28455140  0.04772764    -0.10500
C446        C  0.45888019  0.29592495  0.05204280     0.08900
C447        C  0.47303376  0.34868346  0.11622262     0.09900
S448        S  0.52917578  0.32375488  0.11442537    -0.24800
H449        H  0.52261058  0.28418123  0.06497433     0.20200
S450        S  0.43245156  0.28549068  0.53353072    -0.30500
H451        H  0.43721568  0.32541855  0.07809586     0.10500
C452        C  0.47613104  0.37332257  0.10198450     0.03700
C453        C  0.47336132  0.39511171  0.12304689    -0.12800
C454        C  0.46767288  0.39286240  0.15827301    -0.08500
C455        C  0.46363514  0.36801649  0.17208185     0.07100
C456        C  0.46642037  0.34627067  0.15095770    -0.13500
S457        S  0.48421665  0.37692570  0.05709222    -0.30500
H458        H  0.47649638  0.41399157  0.11221106     0.11400
S459        S  0.45424782  0.36268887  0.21601624    -0.27600
H460        H  0.46358927  0.32728258  0.16169326     0.08600
H461        H  0.44376174  0.26494949  0.51557806     0.27000
H462        H  0.48496668  0.40397555  0.05689210     0.21800
H463        H  0.43820678  0.38448375  0.21801510     0.27200
H464        H  0.51661437  0.33410520  0.14321160     0.16000
C465        C  0.53824067  0.82173304  0.42754326    -0.11300
C466        C  0.51878424  0.82043444  0.40273375     0.15200
C467        C  0.50423862  0.79757406  0.39965768     0.02100
C468        C  0.50694413  0.77827281  0.42452239    -0.15700
C469        C  0.52458537  0.78092935  0.45161887    -0.10500
C470        C  0.54158387  0.80215997  0.45158120     0.08900
C471        C  0.51292905  0.84420908  0.38312296     0.09900
S472        S  0.48114499  0.79245152  0.36573700    -0.24800
H473        H  0.49394652  0.76203447  0.42399567     0.20200
S474        S  0.57242188  0.80799008  0.98313456    -0.30500
H475        H  0.55009526  0.83880522  0.42936395     0.10500
C476        C  0.48948609  0.85760099  0.38751140     0.03700
C477        C  0.48567290  0.88113464  0.37070899    -0.12800
C478        C  0.50506354  0.89217439  0.35052729    -0.08500
C479        C  0.52855386  0.87871614  0.34626460     0.07100
C480        C  0.53223003  0.85507224  0.36270597    -0.13500
S481        S  0.46514871  0.84596130  0.41665428    -0.30500
H482        H  0.46780943  0.89151574  0.37436191     0.11400
S483        S  0.55437306  0.89021306  0.31963186    -0.27600
H484        H  0.55037306  0.84502973  0.35965192     0.08600
H485        H  0.57467393  0.78203163  0.99256142     0.27000
H486        H  0.44668956  0.86514292  0.41001704     0.21800
H487        H  0.53818990  0.89922890  0.29328789     0.27200
H488        H  0.49208021  0.80985322  0.34242018     0.16000
C489        C  0.47986318  0.69018415  0.07601892    -0.11300
C490        C  0.49868042  0.67106074  0.07996656     0.15200
C491        C  0.52069685  0.67152883  0.05859194     0.02100
C492        C  0.52483663  0.69272865  0.03713598    -0.15700
C493        C  0.50688724  0.71285343  0.03547144    -0.10500
C494        C  0.48350157  0.71070737  0.05355195     0.08900
C495        C  0.49518180  0.65203724  0.10794647     0.09900
S496        S  0.54440855  0.64612847  0.05807204    -0.24800
H497        H  0.54260558  0.69402548  0.02275741     0.20200
S498        S  0.45781523  0.73389986  0.04959839    -0.30500
H499        H  0.46250724  0.68955006  0.09135788     0.10500
C500        C  0.51220515  0.65079354  0.13612875     0.03700
C501        C  0.50784518  0.63278269  0.16218673    -0.12800
C502        C  0.48612848  0.61663803  0.16182936    -0.08500
C503        C  0.46797730  0.61969870  0.13497498     0.07100
C504        C  0.47306334  0.63669597  0.10801672    -0.13500
S505        S  0.53880486  0.67294104  0.14000975    -0.30500
H506        H  0.52164476  0.63124245  0.18289607     0.11400
S507        S  0.43728378  0.60391020  0.13439159    -0.27600
H508        H  0.45925914  0.63851588  0.08727900     0.08600
H509        H  0.46404298  0.74167374  0.01605162     0.27000
H510        H  0.54901317  0.66307344  0.17075080     0.21800
H511        H  0.43293688  0.60717358  0.16982970     0.27200
H512        H  0.52797460  0.62662082  0.06974931     0.16000
C513        C  0.54199141  0.69536298  0.41764431    -0.11300
C514        C  0.52069369  0.67951830  0.41131650     0.15200
C515        C  0.49759031  0.68434327  0.42940190     0.02100
C516        C  0.49616776  0.70509740  0.45247164    -0.15700
C517        C  0.51760561  0.72064352  0.45929561    -0.10500
C518        C  0.54083592  0.71543631  0.44178934     0.08900
C519        C  0.52364064  0.65739452  0.38714976     0.09900
S520        S  0.46956605  0.66422267  0.42529774    -0.24800
H521        H  0.47839733  0.70870507  0.46616373     0.20200
S522        S  0.57011286  0.73240658  0.45102015    -0.30500
H523        H  0.55993826  0.69149728  0.40446428     0.10500
C524        C  0.51105105  0.65654575  0.35508369     0.03700
C525        C  0.51332797  0.63446000  0.33421174    -0.12800
C526        C  0.52846732  0.61319691  0.34422763    -0.08500
C527        C  0.54246916  0.61508779  0.37553243     0.07100
C528        C  0.53952287  0.63680001  0.39667171    -0.13500
S529        S  0.49225561  0.68370565  0.34061891    -0.30500
H530        H  0.50276705  0.63360495  0.31027275     0.11400
S531        S  0.56508085  0.59107107  0.38986145    -0.27600
H532        H  0.54980723  0.63769625  0.42088131     0.08600
H533        H  0.56561089  0.73393349  0.48659673     0.27000
H534        H  0.48629517  0.67382099  0.30788232     0.21800
H535        H  0.57623849  0.58785703  0.35720705     0.27200
H536        H  0.48287851  0.64118431  0.41856725     0.16000
C537        C  0.17834431  0.96175326  0.08752742    -0.11300
C538        C  0.17617827  0.98608392  0.10275741     0.15200
C539        C  0.19545319  0.00462164  0.09676167     0.02100
C540        C  0.21533659  0.99902899  0.07348990    -0.15700
C541        C  0.21648907  0.97517329  0.05646838    -0.10500
C542        C  0.19825942  0.95600563  0.06476602     0.08900
C543        C  0.15264276  0.99145908  0.12291889     0.09900
S544        S  0.19497680  0.03606042  0.11650018    -0.24800
H545        H  0.22911868  0.01387069  0.06723396     0.20200
S546        S  0.20662853  0.91928164  0.55821340    -0.30500
H547        H  0.16384513  0.94732212  0.09260098     0.10500
C548        C  0.13121650  0.00390596  0.10808916     0.03700
C549        C  0.10789051  0.00505238  0.12625280    -0.12800
C550        C  0.10551458  0.99355893  0.15867047    -0.08500
C551        C  0.12746549  0.98223860  0.17405519     0.07100
C552        C  0.15059137  0.98102743  0.15588102    -0.13500
S553        S  0.13313991  0.01678695  0.06514492    -0.30500
H554        H  0.09113719  0.01375809  0.11450899     0.11400
S555        S  0.12729054  0.96904287  0.21685341    -0.27600
H556        H  0.16705173  0.97148174  0.16727535     0.08600
H557        H  0.23149649  0.92036658  0.54453839     0.27000
H558        H  0.10728332  0.02452099  0.06257028     0.21800
H559        H  0.10965316  0.98701762  0.23025279     0.27200
H560        H  0.18053464  0.02919451  0.14551461     0.16000
C561        C  0.32314797  0.94183282  0.43766182    -0.11300
C562        C  0.33463100  0.96527393  0.42915692     0.15200
C563        C  0.32634188  0.98803738  0.44577634     0.02100
C564        C  0.30559895  0.98710261  0.46869534    -0.15700
C565        C  0.29313600  0.96382836  0.47576477    -0.10500
C566        C  0.30264630  0.94082127  0.46081159     0.08900
C567        C  0.35306788  0.96565385  0.40020480     0.09900
S568        S  0.34034448  0.01902449  0.43710494    -0.24800
H569        H  0.29814618  0.00490824  0.47929693     0.20200
S570        S  0.29196034  0.91662915  0.98090000    -0.30500
H571        H  0.32953739  0.92430461  0.42506620     0.10500
C572        C  0.37885917  0.95811092  0.40435242     0.03700
C573        C  0.39557136  0.95900326  0.37609027    -0.12800
C574        C  0.38696037  0.96697727  0.34345701    -0.08500
C575        C  0.36058031  0.97305654  0.33915016     0.07100
C576        C  0.34414292  0.97277038  0.36760359    -0.13500
S577        S  0.39069012  0.94841538  0.44598272    -0.30500
H578        H  0.41566994  0.95434708  0.37980766     0.11400
S579        S  0.34637669  0.98044188  0.29805726    -0.27600
H580        H  0.32406054  0.97777225  0.36423790     0.08600
H581        H  0.27991259  0.92566961  0.01084004     0.27000
H582        H  0.41551844  0.94132559  0.43517935     0.21800
H583        H  0.36140794  0.96255456  0.27964647     0.27200
H584        H  0.36487185  0.00977364  0.42824243     0.16000
C585        C  0.30043455  0.97576525  0.10374655    -0.11300
C586        C  0.31311420  0.99943991  0.10059154     0.15200
C587        C  0.30635010  0.01599383  0.07332598     0.02100
C588        C  0.28804175  0.00810773  0.04912907    -0.15700
C589        C  0.27612966  0.98402739  0.05139663    -0.10500
C590        C  0.28198928  0.96790935  0.07945218     0.08900
C591        C  0.33569842  0.00471735  0.12290038     0.09900
S592        S  0.32096628  0.04708314  0.06749605    -0.24800
H593        H  0.28308071  0.02080344  0.02814678     0.20200
S594        S  0.26733166  0.93668274  0.08319451    -0.30500
H595        H  0.30588554  0.96298696  0.12444678     0.10500
C596        C  0.33336599  0.01098587  0.15806392     0.03700
C597        C  0.35567459  0.01533961  0.17779777    -0.12800
C598        C  0.38027082  0.01356364  0.16298654    -0.08500
C599        C  0.38235839  0.00660827  0.12786398     0.07100
C600        C  0.36018626  0.00268105  0.10828081    -0.13500
S601        S  0.30201610  0.01411602  0.17744925    -0.30500
H602        H  0.35398424  0.02041698  0.20470980     0.11400
S603        S  0.41269748  0.00076493  0.10685068    -0.27600
H604        H  0.36203067  0.99732308  0.08144125     0.08600
H605        H  0.27881721  0.92986037  0.11460996     0.27000
H606        H  0.31064361  0.02080657  0.21055925     0.21800
H607        H  0.42377171  0.98786588  0.13493697     0.27200
H608        H  0.32630556  0.05157643  0.10242583     0.16000
C609        C  0.79835927  0.01748251  0.40601120    -0.11300
C610        C  0.81527637  0.99719590  0.41390195     0.15200
C611        C  0.80918580  0.98064520  0.44142779     0.02100
C612        C  0.78711691  0.98535235  0.46100582    -0.15700
C613        C  0.77164515  0.00712181  0.45528504    -0.10500
C614        C  0.77699410  0.02291156  0.42678270     0.08900
C615        C  0.84075783  0.99636670  0.39666618     0.09900
S616        S  0.83006422  0.95494926  0.45545552    -0.24800
H617        H  0.78490254  0.97248512  0.98548334     0.20200
S618        S  0.75932058  0.05196852  0.41827617    -0.30500
H619        H  0.80301359  0.03042857  0.38517742     0.10500
C620        C  0.84869429  0.97571901  0.37550649     0.03700
C621        C  0.87368109  0.97566470  0.36164025    -0.12800
C622        C  0.89070088  0.99611689  0.36793384    -0.08500
C623        C  0.88261967  0.01668659  0.38932129     0.07100
C624        C  0.85784101  0.01663496  0.40313251    -0.13500
S625        S  0.82665532  0.95013108  0.36487217    -0.30500
H626        H  0.87965252  0.96016797  0.34475501     0.11400
S627        S  0.90316647  0.04330494  0.40081426    -0.27600
H628        H  0.85194588  0.03237546  0.41972531     0.08600
H629        H  0.76197656  0.06136163  0.45202771     0.27000
H630        H  0.84405167  0.93523163  0.34553054     0.21800
H631        H  0.92603279  0.02880260  0.40151669     0.27200
H632        H  0.85328163  0.96770370  0.44872174     0.16000
C633        C  0.67432997  0.05437441  0.07684122    -0.11300
C634        C  0.65666472  0.03414656  0.07689370     0.15200
C635        C  0.65940371  0.01403265  0.05255091     0.02100
C636        C  0.68115434  0.01328074  0.03127342    -0.15700
C637        C  0.69993973  0.03257036  0.03316563    -0.10500
C638        C  0.69570305  0.05398351  0.05517201     0.08900
C639        C  0.63746411  0.03347511  0.10505255     0.09900
S640        S  0.63657704  0.98814078  0.04869680    -0.24800
H641        H  0.68409844  0.99679785  0.01460293     0.20200
S642        S  0.71731137  0.08104146  0.05824772    -0.30500
H643        H  0.67206030  0.07009982  0.09497970     0.10500
C644        C  0.63985958  0.01585252  0.13227528     0.03700
C645        C  0.62192336  0.01633873  0.15910313    -0.12800
C646        C  0.60175682  0.03451891  0.16013190    -0.08500
C647        C  0.60042796  0.05316767  0.13356934     0.07100
C648        C  0.61799917  0.05215997  0.10627369    -0.13500
S649        S  0.66624533  0.99314235  0.13349151    -0.30500
H650        H  0.62354693  0.00210921  0.17920698     0.11400
S651        S  0.57754501  0.07925819  0.13313423    -0.27600
H652        H  0.61676946  0.06636115  0.08601227     0.08600
H653        H  0.72881744  0.07797948  0.02591215     0.27000
H654        H  0.66039674  0.98218734  0.16552062     0.21800
H655        H  0.58116169  0.08543204  0.16805007     0.27200
H656        H  0.61546833  0.00177355  0.06213878     0.16000
C657        C  0.67384841  0.02660132  0.42431208    -0.11300
C658        C  0.67349737  0.00209435  0.40920077     0.15200
C659        C  0.69292983  0.98422482  0.41798711     0.02100
C660        C  0.71134964  0.99083528  0.44286710    -0.15700
C661        C  0.71142111  0.01523341  0.45860617    -0.10500
C662        C  0.69269288  0.03350545  0.44830527     0.08900
C663        C  0.65203911  0.99581596  0.38535163     0.09900
S664        S  0.69514232  0.95268798  0.39869077    -0.24800
H665        H  0.72561566  0.97670966  0.45034814     0.20200
S666        S  0.69291348  0.06521108  0.96292401    -0.30500
H667        H  0.65925367  0.04054825  0.41725400     0.10500
C668        C  0.63155685  0.97995386  0.39551636     0.03700
C669        C  0.61068287  0.97612309  0.37316401    -0.12800
C670        C  0.60918216  0.98845004  0.34095478    -0.08500
C671        C  0.62993322  0.00459405  0.33112999     0.07100
C672        C  0.65107965  0.00772447  0.35313832    -0.13500
S673        S  0.63133336  0.96566076  0.43777654    -0.30500
H674        H  0.59511756  0.96384599  0.38136564     0.11400
S675        S  0.63038879  0.02299624  0.29200575    -0.27600
H676        H  0.66662555  0.02032409  0.34557548     0.08600
H677        H  0.71944237  0.06712621  0.96847725     0.27000
H678        H  0.60679931  0.95450127  0.43550154     0.21800
H679        H  0.60703487  0.03559584  0.29938290     0.27200
H680        H  0.68312958  0.95909185  0.36750308     0.16000
C681        C  0.97588108  0.14734499  0.37291410    -0.11300
C682        C  0.97258499  0.13831458  0.40654907     0.15200
C683        C  0.96797178  0.11197205  0.41207191     0.02100
C684        C  0.96801772  0.09505452  0.38406026    -0.15700
C685        C  0.97215349  0.10383698  0.35034240    -0.10500
C686        C  0.97559395  0.13045253  0.34469194     0.08900
C687        C  0.97424758  0.15709216  0.43505499     0.09900
S688        S  0.96237261  0.09870564  0.45416483    -0.24800
H689        H  0.96526614  0.07471177  0.38879532     0.20200
S690        S  0.97862381  0.14327024  0.30178508    -0.30500
H691        H  0.97887473  0.16772570  0.36893013     0.10500
C692        C  0.99665013  0.15959137  0.45522796     0.03700
C693        C  0.99881672  0.18041104  0.47814523    -0.12800
C694        C  0.97895079  0.19858469  0.48116019    -0.08500
C695        C  0.95565586  0.19453699  0.46329786     0.07100
C696        C  0.95369924  0.17411745  0.44006138    -0.13500
S697        S  0.02326690  0.13760855  0.44971310    -0.30500
H698        H  0.01670344  0.18362081  0.49168641     0.11400
S699        S  0.92810265  0.21536891  0.46817068    -0.27600
H700        H  0.93627716  0.17184292  0.42508929     0.08600
H701        H  0.98133699  0.16926484  0.31126718     0.27000
H702        H  0.03817614  0.14703624  0.47716607     0.21800
H703        H  0.93418068  0.22359156  0.50168391     0.27200
H704        H  0.95129431  0.12092087  0.46864976     0.16000
C705        C  0.01471571  0.15243297  0.15829888    -0.11300
C706        C  0.01100308  0.14911667  0.12284930     0.15200
C707        C  0.01094866  0.12395585  0.10899483     0.02100
C708        C  0.01380323  0.10281136  0.13089262    -0.15700
C709        C  0.01725332  0.10592592  0.16655793    -0.10500
C710        C  0.01808362  0.13125252  0.18018064     0.08900
C711        C  0.00763982  0.17212749  0.10075082     0.09900
S712        S  0.00698760  0.11742452  0.06365921    -0.24800
H713        H  0.01306704  0.08364941  0.11986725     0.20200
S714        S  0.02437693  0.13801291  0.22483010    -0.30500
H715        H  0.01522705  0.17172043  0.16895542     0.10500
C716        C  0.98358044  0.17860383  0.08641781     0.03700
C717        C  0.98192584  0.19870606  0.06247701    -0.12800
C718        C  0.00385112  0.21237822  0.05233888    -0.08500
C719        C  0.02778692  0.20619574  0.06736347     0.07100
C720        C  0.02935612  0.18653451  0.09182271    -0.13500
S721        S  0.95510369  0.16097026  0.09820046    -0.30500
H722        H  0.96363785  0.20349506  0.05086067     0.11400
S723        S  0.05725824  0.22113350  0.05418654    -0.27600
H724        H  0.04791129  0.18143085  0.10252405     0.08600
H725        H  0.04294838  0.11848055  0.22851874     0.27000
H726        H  0.93801415  0.17408549  0.07633027     0.21800
H727        H  0.05063847  0.22184561  0.01916266     0.27200
H728        H  0.01827074  0.14019453  0.05161812     0.16000
C729        C  0.03009402  0.31299141  0.07647579    -0.11300
C730        C  0.01116824  0.31445332  0.10192653     0.15200
C731        C  0.99412611  0.29358871  0.10618615     0.02100
C732        C  0.99487008  0.27291766  0.08287662    -0.15700
C733        C  0.01235967  0.27266620  0.05542832    -0.10500
C734        C  0.03101437  0.29239020  0.05340282     0.08900
C735        C  0.00734414  0.33963649  0.11925689     0.09900
S736        S  0.97004043  0.29308901  0.13942202    -0.24800
H737        H  0.98039385  0.25803912  0.08460390     0.20200
S738        S  0.05532797  0.29373877  0.02038242    -0.30500
H739        H  0.04330521  0.32887894  0.07317180     0.10500
C740        C  0.02627029  0.35046046  0.14077350     0.03700
C741        C  0.02328023  0.37583307  0.15270712    -0.12800
C742        C  0.00172527  0.39067705  0.14353191    -0.08500
C743        C  0.98286657  0.37971557  0.12178427     0.07100
C744        C  0.98574501  0.35434695  0.11026139    -0.13500
S745        S  0.05389173  0.33171050  0.15366042    -0.30500
H746        H  0.03753818  0.38399515  0.16981196     0.11400
S747        S  0.95560063  0.39755032  0.10596154    -0.27600
H748        H  0.97154485  0.34633300  0.09289117     0.08600
H749        H  0.05440853  0.26773897  0.01077284     0.27000
H750        H  0.06594231  0.35111231  0.17308749     0.21800
H751        H  0.96933393  0.42060692  0.10193591     0.27200
H752        H  0.98311935  0.30952209  0.16224264     0.16000
C753        C  0.99600019  0.81688340  0.08136527    -0.11300
C754        C  0.01926153  0.82986804  0.08663453     0.15200
C755        C  0.04110586  0.82257351  0.06734893     0.02100
C756        C  0.03928595  0.80210791  0.04399546    -0.15700
C757        C  0.01647457  0.78802995  0.04050436    -0.10500
C758        C  0.99441915  0.79579644  0.05902634     0.08900
C759        C  0.02052657  0.84906779  0.11476477     0.09900
S760        S  0.07226040  0.83716406  0.07307695    -0.24800
H761        H  0.05639814  0.79579305  0.03050275     0.20200
S762        S  0.96404807  0.77902883  0.05740509    -0.30500
H763        H  0.97923494  0.82242585  0.09618284     0.10500
C764        C  0.02313588  0.87557432  0.10844049     0.03700
C765        C  0.02414794  0.89275686  0.13631282    -0.12800
C766        C  0.02219664  0.88402739  0.17041674    -0.08500
C767        C  0.01998314  0.85734465  0.17654546     0.07100
C768        C  0.01895100  0.84026459  0.14872379    -0.13500
S769        S  0.02391999  0.88759276  0.06496229    -0.30500
H770        H  0.02544589  0.91321006  0.13147643     0.11400
S771        S  0.01913815  0.84375236  0.21906342    -0.27600
H772        H  0.01719498  0.81982322  0.15356170     0.08600
H773        H  0.97106411  0.75820949  0.03639177     0.27000
H774        H  0.02708459  0.91371631  0.07350898     0.21800
H775        H  0.03576555  0.86200263  0.23384469     0.27200
H776        H  0.06951159  0.84314645  0.10811657     0.16000
C777        C  0.98600455  0.83529198  0.35998995    -0.11300
C778        C  0.99086083  0.83843110  0.39520055     0.15200
C779        C  0.98985359  0.86337801  0.40967783     0.02100
C780        C  0.98370893  0.88444775  0.38885925    -0.15700
C781        C  0.97912733  0.88153151  0.35341213    -0.10500
C782        C  0.97988305  0.85640300  0.33908764     0.08900
C783        C  0.99646150  0.81543037  0.41647759     0.09900
S784        S  0.99672126  0.86972280  0.45441829    -0.24800
H785        H  0.98353008  0.90348212  0.40031842     0.20200
S786        S  0.97218041  0.84972089  0.29480079    -0.30500
H787        H  0.98648990  0.81615363  0.34884746     0.10500
C788        C  0.97846927  0.80604417  0.44037302     0.03700
C789        C  0.98564670  0.78624985  0.46288549    -0.12800
C790        C  0.01037379  0.77548301  0.46187623    -0.08500
C791        C  0.02802222  0.78424852  0.43705792     0.07100
C792        C  0.02080624  0.80386294  0.41435357    -0.13500
S793        S  0.94642975  0.81940335  0.44229854    -0.30500
H794        H  0.97212089  0.77928682  0.48170340     0.11400
S795        S  0.06040927  0.77223507  0.43450379    -0.27600
H796        H  0.03467524  0.81102425  0.39599945     0.08600
H797        H  0.95246586  0.86824885  0.29279204     0.27000
H798        H  0.93703417  0.80290271  0.46791218     0.21800
H799        H  0.06349010  0.76926696  0.47014475     0.27200
H800        H  0.01437394  0.84950046  0.45900973     0.16000
C801        C  0.03208073  0.68028702  0.41533099    -0.11300
C802        C  0.00705772  0.67794201  0.40246038     0.15200
C803        C  0.98820223  0.69611103  0.41220465     0.02100
C804        C  0.99438720  0.71519518  0.43636812    -0.15700
C805        C  0.01900251  0.71636400  0.45110279    -0.10500
C806        C  0.03827596  0.69914557  0.43954830     0.08900
C807        C  0.00099200  0.65444856  0.38255148     0.09900
S808        S  0.95568698  0.69496459  0.39628433    -0.24800
H809        H  0.97942471  0.72807578  0.44542071     0.20200
S810        S  0.07071640  0.69931084  0.96498799    -0.30500
H811        H  0.04661024  0.66638724  0.40777542     0.10500
C812        C  0.01066215  0.65073879  0.34917240     0.03700
C813        C  0.00902616  0.62634087  0.33389823    -0.12800
C814        C  0.99757032  0.60560484  0.35113446    -0.08500
C815        C  0.98638717  0.60988239  0.38370278     0.07100
C816        C  0.98846835  0.63415074  0.39921876    -0.13500
S817        S  0.02566490  0.67694063  0.32648618    -0.30500
H818        H  0.01729531  0.62318222  0.30869873     0.11400
S819        S  0.97166735  0.58456754  0.40801206    -0.27600
H820        H  0.98121543  0.63696455  0.42506450     0.08600
H821        H  0.06991905  0.72457639  0.97766136     0.27000
H822        H  0.02928415  0.66377270  0.29520783     0.21800
H823        H  0.95368661  0.57904980  0.38211066     0.27200
H824        H  0.96155807  0.68262898  0.36504123     0.16000
N825        N  0.01592749  0.75716836  0.99022546    -0.03400
C826        C  0.02083193  0.73161894  0.98692755    -0.00800
C827        C  0.02773905  0.71994228  0.51432437    -0.23700
C828        C  0.02637070  0.73902641  0.53876797    -0.23900
C829        C  0.01998433  0.76132709  0.52158989    -0.00900
H830        H  0.03155681  0.69976787  0.51893403     0.12900
H831        H  0.02945300  0.73687823  0.56610936     0.12900
N832        N  0.99455162  0.22857448  0.52818118    -0.03400
C833        C  0.99866811  0.25437713  0.52965466    -0.00800
C834        C  0.00161822  0.26687276  0.99317539    -0.23700
C835        C  0.99363693  0.24715038  0.97232104    -0.23900
C836        C  0.99364378  0.22526284  0.99227135    -0.00900
H837        H  0.00286744  0.28694485  0.98608960     0.12900
H838        H  0.98817197  0.24861558  0.94556252     0.12900
N839        N  0.73102375  0.01973297  0.98503086    -0.03400
C840        C  0.75684487  0.01510453  0.98483838    -0.00800
C841        C  0.76684035  0.02181082  0.51596631    -0.23700
C842        C  0.74743332  0.02959756  0.53725422    -0.23900
C843        C  0.72501974  0.02880359  0.51821500    -0.00900
H844        H  0.78694430  0.02004150  0.52275341     0.12900
H845        H  0.74932668  0.03452705  0.56417959     0.12900
N846        N  0.26160032  0.97176414  0.52457797    -0.03400
C847        C  0.23586065  0.96828114  0.52788646    -0.00800
C848        C  0.22360885  0.96583691  0.99384395    -0.23700
C849        C  0.24413013  0.96495600  0.97181996    -0.23900
C850        C  0.26554604  0.97123671  0.99096400    -0.00900
H851        H  0.20375801  0.96212152  0.98721501     0.12900
H852        H  0.24357314  0.96010307  0.94476369     0.12900
N853        N  0.52146071  0.74141627  0.98665525    -0.03400
C854        C  0.52635081  0.76704239  0.98402308    -0.00800
C855        C  0.51663036  0.77773506  0.51477560    -0.23700
C856        C  0.50948533  0.75900531  0.53737043    -0.23900
C857        C  0.50877550  0.73624860  0.51899636    -0.00900
H858        H  0.51770948  0.79812028  0.52034929     0.12900
H859        H  0.50471022  0.76176388  0.56419218     0.12900
N860        N  0.49049467  0.26819506  0.52358521    -0.03400
C861        C  0.49334178  0.24247711  0.52802013    -0.00800
C862        C  0.49882540  0.22943899  0.99352273    -0.23700
C863        C  0.50019436  0.24915876  0.97017405    -0.23900
C864        C  0.49387965  0.27138994  0.98779520    -0.00900
H865        H  0.50324967  0.20938960  0.98869212     0.12900
H866        H  0.50604256  0.24761996  0.94357229     0.12900
N867        N  0.23656548  0.50732597  0.51684910    -0.03400
C868        C  0.26222027  0.50313476  0.51953450    -0.00800
C869        C  0.27365712  0.50228184  0.98722622    -0.23700
C870        C  0.25456352  0.50914349  0.96472735    -0.23900
C871        C  0.23208284  0.51058712  0.98352544    -0.00900
H872        H  0.29386212  0.50024833  0.98122155     0.12900
H873        H  0.25680852  0.51265619  0.93751053     0.12900
N874        N  0.76530701  0.48439210  0.97308483    -0.03400
C875        C  0.73917735  0.48452975  0.97267170    -0.00800
C876        C  0.72914784  0.47094747  0.50529242    -0.23700
C877        C  0.74992851  0.46407776  0.52491239    -0.23900
C878        C  0.77153621  0.47047257  0.50628533    -0.00900
H879        H  0.70915689  0.46842731  0.51209533     0.12900
H880        H  0.74935613  0.45590559  0.55043045     0.12900
O881        O  0.48117291  0.51875248  0.69516648    -0.88300
C882        C  0.46984457  0.55090695  0.78882205     0.87800
Mg883      Mg  0.46990515  0.48044256  0.68314044     1.58100
O884        O  0.53358071  0.53355245  0.77098381    -0.88000
O885        O  0.51599781  0.54238921  0.69468033    -0.75300
C886        C  0.51022670  0.41252537  0.81722848     0.92800
O887        O  0.43554240  0.50905734  0.74807387    -0.75100
O888        O  0.49428140  0.41087135  0.79247324    -0.82600
Mg889      Mg  0.45283593  0.54305187  0.71823676     1.58000
C890        C  0.57878939  0.49551991  0.83872273     0.92700
O891        O  0.46768098  0.57785612  0.68708592    -0.80900
H892        H  0.56449804  0.53571932  0.74067429    -0.06200
C893        C  0.49232937  0.48257019  0.82658325     0.87700
O894        O  0.51106215  0.46608294  0.69245228    -0.75400
O895        O  0.47910211  0.55039168  0.75953239    -0.88200
O896        O  0.56525846  0.51595995  0.83650121    -0.81000
C897        C  0.52710213  0.59056529  0.82448839     0.92900
C898        C  0.48284109  0.59693055  0.69084558     0.92700
Mg899      Mg  0.54007775  0.46587052  0.78830382     1.58000
O900        O  0.52564174  0.43145238  0.82012884    -0.80900
O901        O  0.55713540  0.49970616  0.75799653    -0.75200
O902        O  0.51831703  0.59147263  0.79384692    -0.77800
O903        O  0.42304010  0.53482896  0.67655373    -0.82700
O904        O  0.47555442  0.41755850  0.71320618    -0.81000
C905        C  0.55231349  0.52369408  0.75629532     0.87100
O906        O  0.51366293  0.45853782  0.74775205    -0.88200
O907        O  0.51200420  0.49018356  0.81197134    -0.88300
O908        O  0.47683413  0.46693189  0.81231026    -0.75300
Mg909      Mg  0.51598883  0.56525642  0.74546248     1.58000
O910        O  0.53362909  0.56931156  0.83804047    -0.82700
H911        H  0.50513319  0.51935024  0.65504740    -0.06400
O912        O  0.45937988  0.47524316  0.73578928    -0.88000
H913        H  0.42808831  0.47305930  0.76541119    -0.06200
H914        H  0.54257384  0.45083754  0.71549249    -0.06400
C915        C  0.44043279  0.48508488  0.75001281     0.87100
C916        C  0.50065874  0.52662183  0.68041524     0.87700
C917        C  0.52313175  0.45782982  0.71860720     0.87800
H918        H  0.48779372  0.49002211  0.85183968    -0.06400
O919        O  0.48224778  0.54281083  0.81483162    -0.75400
Mg920      Mg  0.47691397  0.44366633  0.76184351     1.58000
H921        H  0.45036283  0.55770928  0.79223720    -0.06400
C922        C  0.41525266  0.51300925  0.66582013     0.92700
O923        O  0.46004089  0.43961048  0.66873492    -0.82700
C924        C  0.46733726  0.41858519  0.68228826     0.92800
O925        O  0.49843514  0.59822683  0.71601052    -0.82600
Mg926      Mg  0.52357704  0.52842219  0.82383806     1.58200
O927        O  0.42865885  0.49264305  0.66949727    -0.81000
O928        O  0.57023793  0.47384691  0.82869400    -0.82700
O929        O  0.50546102  0.02233600  0.69658436    -0.88300
C930        C  0.53718517  0.03465286  0.79055206     0.87800
Mg931      Mg  0.46570889  0.02851055  0.68595807     1.58100
O932        O  0.52945704  0.96962630  0.76945500    -0.88000
O933        O  0.53356738  0.99078363  0.69384378    -0.75300
C934        C  0.40629391  0.97227584  0.81749549     0.92800
O935        O  0.48975886  0.06325491  0.75403339    -0.75100
O936        O  0.40232284  0.98880985  0.79399286    -0.82600
Mg937      Mg  0.52559627  0.05256194  0.72229727     1.58000
C938        C  0.50038513  0.91786403  0.83653819     0.92700
O939        O  0.56185832  0.04456421  0.68919405    -0.80900
H940        H  0.53647450  0.93993680  0.73797990    -0.06200
C941        C  0.47304082  0.00121662  0.82804166     0.87700
O942        O  0.45820019  0.98511155  0.69286573    -0.75400
O943        O  0.53729352  0.02606062  0.76085279    -0.88200
O944        O  0.51817702  0.93457968  0.83439233    -0.81000
C945        C  0.58556872  0.98430367  0.82168501     0.92900
C946        C  0.58293157  0.03201582  0.69097504     0.92700
Mg947      Mg  0.46411598  0.95227689  0.78728371     1.58000
O948        O  0.42752647  0.95997978  0.81963180    -0.80900
O949        O  0.49989986  0.94128459  0.75590397    -0.75200
O950        O  0.58407782  0.99268030  0.79101906    -0.81000
O951        O  0.51263800  0.08263138  0.68432687    -0.82700
O952        O  0.40556457  0.01008147  0.71525276    -0.81000
C953        C  0.52273710  0.94981168  0.75417867     0.87100
O954        O  0.45243611  0.97868499  0.74805620    -0.88200
O955        O  0.48374730  0.98332107  0.81245404    -0.88300
O956        O  0.45493954  0.01435814  0.81465324    -0.75300
Mg957      Mg  0.55728759  0.99237348  0.74376818     1.58000
O958        O  0.56629872  0.97378802  0.83607458    -0.82700
H959        H  0.50877411  0.99954872  0.65530530    -0.06400
O960        O  0.45957792  0.03574363  0.73942272    -0.88000
H961        H  0.45323591  0.06482174  0.77216695    -0.06200
H962        H  0.44941929  0.95037027  0.71335124    -0.06400
C963        C  0.46674608  0.05507684  0.75549441     0.87100
C964        C  0.51572679  0.00435743  0.68071365     0.87700
C965        C  0.45294010  0.97055812  0.71811000     0.87800
H966        H  0.47975702  0.00629198  0.85347223    -0.06400
O967        O  0.53138589  0.02072742  0.81613756    -0.75400
Mg968      Mg  0.43161112  0.01212779  0.76426570     1.58000
H969        H  0.54122321  0.05481492  0.79470802    -0.06400
C970        C  0.49023682  0.08815545  0.67344226     0.92700
O971        O  0.42339588  0.03272809  0.67312758    -0.82700
C972        C  0.40476383  0.01971171  0.68505994     0.92800
O973        O  0.58665955  0.01542907  0.71445571    -0.82600
Mg974      Mg  0.52375026  0.97762635  0.82308500     1.58200
O975        O  0.47174498  0.07206606  0.67465603    -0.81000
O976        O  0.47754387  0.92259517  0.82644965    -0.82700
O977        O  0.01606489  0.97999754  0.70190868    -0.88300
C978        C  0.02835134  0.94708572  0.79548693     0.87800
Mg979      Mg  0.02489433  0.01923478  0.69065612     1.58100
O980        O  0.96331024  0.95886996  0.77809983    -0.88000
O981        O  0.98268157  0.95402908  0.70157068    -0.75300
C982        C  0.97662442  0.08165349  0.82580632     0.92800
O983        O  0.05963353  0.99269532  0.75760439    -0.75100
O984        O  0.99245927  0.08493125  0.80131398    -0.82600
Mg985      Mg  0.04553379  0.95788919  0.72640345     1.58000
C986        C  0.91689883  0.99436297  0.84982384     0.92700
O987        O  0.03454211  0.92278955  0.69354173    -0.80900
H988        H  0.93266895  0.95454747  0.74759794    -0.06200
C989        C  0.00116332  0.01289851  0.83409479     0.87700
O990        O  0.98248955  0.03020414  0.69972104    -0.75400
O991        O  0.01917250  0.94807580  0.76619979    -0.88200
O992        O  0.93060660  0.97404136  0.84653052    -0.81000
C993        C  0.97617493  0.90240927  0.82969262     0.92900
C994        C  0.02096678  0.90250127  0.69556939     0.92700
Mg995      Mg  0.95228957  0.02587416  0.79584330     1.58000
O996        O  0.96338321  0.06118417  0.82837564    -0.80900
O997        O  0.93766965  0.99103184  0.76506450    -0.75200
O998        O  0.98494123  0.90283425  0.79900441    -0.81000
O999        O  0.07539314  0.96835754  0.68696711    -0.82700
O1000       O  0.01215726  0.08077562  0.72188510    -0.81000
C1001       C  0.94398836  0.96739886  0.76337727     0.87100
O1002       O  0.97827236  0.03552730  0.75533576    -0.88200
O1003       O  0.98196235  0.00372382  0.81974170    -0.88300
O1004       O  0.01499927  0.03008913  0.82004597    -0.75300
Mg1005     Mg  0.98422795  0.92974880  0.75109954     1.58000
O1006       O  0.96636416  0.92235782  0.84373102    -0.82700
H1007       H  0.99131465  0.97836649  0.66261512    -0.06400
O1008       O  0.03421118  0.02487125  0.74375989    -0.88000
H1009       H  0.06444076  0.02921855  0.77498673    -0.06200
H1010       H  0.94925256  0.04152494  0.72257360    -0.06400
C1011       C  0.05333086  0.01634498  0.75897527     0.87100
C1012       C  0.99677581  0.97101190  0.68753125     0.87700
C1013       C  0.96919448  0.03623454  0.72595640     0.87800
H1014       H  0.00671978  0.00561798  0.85901675    -0.06400
O1015       O  0.01526918  0.95323449  0.82182405    -0.75400
Mg1016     Mg  0.01314360  0.05411614  0.77022876     1.58000
H1017       H  0.04824299  0.94153602  0.79867794    -0.06400
C1018       C  0.08214913  0.98999745  0.67489323     0.92700
O1019       O  0.03171912  0.06122693  0.67806220    -0.82700
C1020       C  0.02146578  0.08118329  0.69147532     0.92800
O1021       O  0.00484894  0.89910141  0.71970182    -0.82600
Mg1022     Mg  0.97305683  0.96442230  0.83114476     1.58200
O1023       O  0.06754155  0.00978277  0.67646695    -0.81000
O1024       O  0.92352177  0.01564506  0.83660323    -0.82700
O1025       O  0.98903252  0.48004845  0.68852256    -0.88300
C1026       C  0.95505094  0.46944287  0.78123678     0.87800
Mg1027     Mg  0.02788649  0.47000383  0.67745831     1.58100
O1028       O  0.96843212  0.53390717  0.76310622    -0.88000
O1029       O  0.96399948  0.51422495  0.68683359    -0.75300
C1030       C  0.09099681  0.51863774  0.81081888     0.92800
O1031       O  0.00054096  0.43711762  0.74485124    -0.75100
O1032       O  0.09413897  0.50242407  0.78658230    -0.82600
Mg1033     Mg  0.96611744  0.45142757  0.71300054     1.58000
C1034       C  0.00395073  0.58061899  0.83315449     0.92700
O1035       O  0.93176393  0.46284928  0.67963814    -0.80900
H1036       H  0.96456219  0.56450231  0.73254467    -0.06200
C1037       C  0.02211358  0.49570577  0.81989739     0.87700
O1038       O  0.03951399  0.51239090  0.68511969    -0.75400
O1039       O  0.95623173  0.47845384  0.75192533    -0.88200
O1040       O  0.98396223  0.56651949  0.83075392    -0.81000
C1041       C  0.91118195  0.52356654  0.81394420     0.92900
C1042       C  0.91211545  0.47748604  0.67941783     0.92700
Mg1043     Mg  0.03549234  0.54387115  0.78059088     1.58000
O1044       O  0.07074828  0.53241815  0.81296152    -0.80900
O1045       O  0.00092797  0.55880667  0.74978800    -0.75200
O1046       O  0.91174051  0.51519012  0.78296455    -0.81000
O1047       O  0.97617229  0.42091754  0.67416614    -0.82700
O1048       O  0.08910657  0.48268347  0.70710463    -0.81000
C1049       C  0.97723299  0.55299771  0.74831253     0.87100
O1050       O  0.04482611  0.51721431  0.74064992    -0.88200
O1051       O  0.01299776  0.51469997  0.80497043    -0.88300
O1052       O  0.03924466  0.48139781  0.80621766    -0.75300
Mg1053     Mg  0.93911027  0.51393974  0.73567291     1.58000
O1054       O  0.93150429  0.53164896  0.82877255    -0.82700
H1055       H  0.98869694  0.50424273  0.64871446    -0.06400
O1056       O  0.03328411  0.46150195  0.73056764    -0.88000
H1057       H  0.03679702  0.43181896  0.76278861    -0.06200
H1058       H  0.05131997  0.54571409  0.70740423    -0.06400
C1059       C  0.02427116  0.44291226  0.74630424     0.87100
C1060       C  0.98080014  0.49939114  0.67353772     0.87700
C1061       C  0.04570908  0.52591496  0.71112202     0.87800
H1062       H  0.01485795  0.49076612  0.84503665    -0.06400
O1063       O  0.96185353  0.48232977  0.80747108    -0.75400
Mg1064     Mg  0.06298801  0.48217787  0.75607035     1.58000
H1065       H  0.94895951  0.44973933  0.78448600    -0.06400
C1066       C  0.99789877  0.41337360  0.66317770     0.92700
O1067       O  0.06952446  0.46182595  0.66444701    -0.82700
C1068       C  0.08909567  0.47332808  0.67663699     0.92800
O1069       O  0.90830339  0.49418897  0.70297849    -0.82600
Mg1070     Mg  0.97370650  0.52426571  0.81626423     1.58200
O1071       O  0.01791395  0.42741235  0.66559022    -0.81000
O1072       O  0.02541896  0.57367228  0.82053014    -0.82700
C1073       C  0.82728923  0.44782655  0.56022426    -0.11300
C1074       C  0.83962067  0.47124175  0.56682992     0.15200
C1075       C  0.83241969  0.49332008  0.54800836     0.02100
C1076       C  0.81150259  0.49199915  0.52539272    -0.15700
C1077       C  0.79774565  0.46905083  0.52099204    -0.10500
C1078       C  0.80663207  0.44645232  0.53729010     0.08900
C1079       C  0.85793071  0.47251311  0.59586345     0.09900
S1080       S  0.84749763  0.52422644  0.55397752    -0.24800
H1081       H  0.80485271  0.50944174  0.51309921     0.20200
S1082       S  0.79165649  0.41554445  0.53099570    -0.30500
H1083       H  0.83311304  0.43073743  0.57411779     0.10500
C1084       C  0.84947738  0.47815647  0.62946791     0.03700
C1085       C  0.86743481  0.47960004  0.65637851    -0.12800
C1086       C  0.89372873  0.47542410  0.65035367    -0.08500
C1087       C  0.90200882  0.46987566  0.61635894     0.07100
C1088       C  0.88400538  0.46791142  0.58979544    -0.13500
S1089       S  0.81575102  0.48340428  0.63799628    -0.30500
H1090       H  0.86098485  0.48389365  0.68221271     0.11400
S1091       S  0.93534645  0.46713669  0.60444242    -0.27600
H1092       H  0.89046086  0.46374210  0.56388979     0.08600
H1093       H  0.78173131  0.42097175  0.49817143     0.27000
H1094       H  0.81803168  0.48653689  0.67378290     0.21800
H1095       H  0.94269350  0.48900020  0.62336316     0.27200
H1096       H  0.87167393  0.51491687  0.56411924     0.16000
C1097       C  0.86116972  0.52776740  0.88608579    -0.11300
C1098       C  0.84182412  0.51172371  0.87319673     0.15200
C1099       C  0.84389934  0.50237007  0.83920314     0.02100
C1100       C  0.86620102  0.50733732  0.82016198    -0.15700
C1101       C  0.88644346  0.52230840  0.83362519    -0.10500
C1102       C  0.88300915  0.53361356  0.86663353     0.08900
C1103       C  0.82070456  0.50401894  0.89671434     0.09900
S1104       S  0.81902182  0.48357167  0.81887390    -0.24800
H1105       H  0.86786951  0.49886943  0.79478187     0.20200
S1106       S  0.90526010  0.55593499  0.88567125    -0.30500
H1107       H  0.85937356  0.53559479  0.91183943     0.10500
C1108       C  0.81896598  0.47867548  0.90937504     0.03700
C1109       C  0.79987357  0.47260848  0.93340334    -0.12800
C1110       C  0.78289387  0.49141420  0.94603804    -0.08500
C1111       C  0.78490820  0.51685359  0.93373273     0.07100
C1112       C  0.80346518  0.52279387  0.90888856    -0.13500
S1113       S  0.84204709  0.45438615  0.89671618    -0.30500
H1114       H  0.79849374  0.45323762  0.94328512     0.11400
S1115       S  0.76580928  0.54284631  0.95062990    -0.27600
H1116       H  0.80512822  0.54242120  0.89988836     0.08600
H1117       H  0.90845477  0.56999760  0.85514416     0.27000
H1118       H  0.83232401  0.43442166  0.91719462     0.21800
H1119       H  0.76630670  0.53374993  0.98456882     0.27200
H1120       H  0.79852569  0.49342158  0.83845534     0.16000
C1121       C  0.68017855  0.51216667  0.93096687    -0.11300
C1122       C  0.68021317  0.49889704  0.89966915     0.15200
C1123       C  0.70254937  0.48534863  0.88942806     0.02100
C1124       C  0.72319083  0.48299411  0.91249159    -0.15700
C1125       C  0.72200004  0.49423512  0.94530621    -0.10500
C1126       C  0.70076552  0.51015558  0.95375601     0.08900
C1127       C  0.65543255  0.49705536  0.88111446     0.09900
S1128       S  0.70506848  0.46928823  0.84842774    -0.24800
H1129       H  0.73937070  0.47081841  0.90572395     0.20200
S1130       S  0.69673921  0.52441733  0.49527786    -0.30500
H1131       H  0.66326143  0.52298809  0.93861986     0.10500
C1132       C  0.64015039  0.47478502  0.88347460     0.03700
C1133       C  0.61534461  0.47483525  0.86933276    -0.12800
C1134       C  0.60530902  0.49673643  0.85289173    -0.08500
C1135       C  0.62114123  0.51877111  0.84969965     0.07100
C1136       C  0.64570466  0.51883263  0.86443096    -0.13500
S1137       S  0.65171724  0.44670508  0.90606293    -0.30500
H1138       H  0.60349212  0.45786138  0.87173127     0.11400
S1139       S  0.61182012  0.54699908  0.82595351    -0.27600
H1140       H  0.65744664  0.53596565  0.86272524     0.08600
H1141       H  0.72289103  0.52494020  0.50396721     0.27000
H1142       H  0.62989761  0.43129007  0.90070979     0.21800
H1143       H  0.60143443  0.53303326  0.79821116     0.27200
H1144       H  0.68683280  0.48461990  0.83132851     0.16000
C1145       C  0.15374255  0.51497673  0.86118038    -0.11300
C1146       C  0.14508312  0.51983903  0.89473057     0.15200
C1147       C  0.11893452  0.52578578  0.90018424     0.02100
C1148       C  0.10196986  0.52578570  0.87221163    -0.15700
C1149       C  0.11050849  0.52055402  0.83856013    -0.10500
C1150       C  0.13693766  0.51558707  0.83310407     0.08900
C1151       C  0.16434438  0.51948511  0.92278534     0.09900
S1152       S  0.10592467  0.53338916  0.94198650    -0.24800
H1153       H  0.08178665  0.52957840  0.87692140     0.20200
S1154       S  0.15070505  0.51081771  0.79105907    -0.30500
H1155       H  0.17393424  0.51097112  0.85679826     0.10500
C1156       C  0.16619007  0.49902109  0.94639942     0.03700
C1157       C  0.18744401  0.49771788  0.96871294    -0.12800
C1158       C  0.20688855  0.51637286  0.96753868    -0.08500
C1159       C  0.20388024  0.53779247  0.94551322     0.07100
C1160       C  0.18279417  0.53899560  0.92339755    -0.13500
S1161       S  0.14279586  0.47344865  0.94605274    -0.30500
H1162       H  0.18991066  0.48114430  0.98514825     0.11400
S1163       S  0.22681656  0.56371899  0.94286890    -0.27600
H1164       H  0.18120982  0.55487143  0.90553383     0.08600
H1165       H  0.13494203  0.52916354  0.77481635     0.27000
H1166       H  0.15251560  0.46019754  0.97474298     0.21800
H1167       H  0.23586468  0.56428892  0.47761407     0.27200
H1168       H  0.12868829  0.54311746  0.95639792     0.16000
C1169       C  0.13156897  0.48551148  0.59851920    -0.11300
C1170       C  0.15613294  0.48551730  0.61319391     0.15200
C1171       C  0.15873378  0.48111324  0.64886718     0.02100
C1172       C  0.13672120  0.47670467  0.66887070    -0.15700
C1173       C  0.11198942  0.47689397  0.65423097    -0.10500
C1174       C  0.10959403  0.48164931  0.61847202     0.08900
C1175       C  0.17827726  0.49098593  0.59036981     0.09900
S1176       S  0.18943014  0.48097698  0.67048460    -0.24800
H1177       H  0.13892207  0.47331896  0.69617445     0.20200
S1178       S  0.07910583  0.48483102  0.59680504    -0.30500
H1179       H  0.12946077  0.48922029  0.57126073     0.10500
C1180       C  0.19462283  0.47128509  0.57822017     0.03700
C1181       C  0.21420910  0.47729047  0.55478386    -0.12800
C1182       C  0.21759496  0.50253548  0.54297399    -0.08500
C1183       C  0.20161776  0.52230686  0.55585098     0.07100
C1184       C  0.18199549  0.51630660  0.57904392    -0.13500
S1185       S  0.18976319  0.43837572  0.59129040    -0.30500
H1186       H  0.22648431  0.46223607  0.54466953     0.11400
S1187       S  0.20556180  0.55551250  0.54404078    -0.27600
H1188       H  0.16949964  0.53149648  0.58840959     0.08600
H1189       H  0.06796599  0.50019741  0.62267328     0.27000
H1190       H  0.21083545  0.42785302  0.57344678     0.21800
H1191       H  0.23208771  0.55383636  0.53775309     0.27200
H1192       H  0.20228880  0.49727887  0.64755651     0.16000
C1193       C  0.35488651  0.52617073  0.61313407    -0.11300
C1194       C  0.33979083  0.50475552  0.62143762     0.15200
C1195       C  0.34958615  0.48628250  0.64451081     0.02100
C1196       C  0.37428117  0.48941403  0.65822264    -0.15700
C1197       C  0.38956254  0.51072112  0.64963795    -0.10500
C1198       C  0.37966241  0.52917362  0.62652160     0.08900
C1199       C  0.31588967  0.50058070  0.60144999     0.09900
S1200       S  0.33159510  0.45831642  0.65731924    -0.24800
H1201       H  0.38153657  0.47517530  0.67607703     0.20200
S1202       S  0.39828402  0.55568486  0.61059787    -0.30500
H1203       H  0.34780523  0.53998232  0.59456311     0.10500
C1204       C  0.29505669  0.51797734  0.60300432     0.03700
C1205       C  0.27564564  0.51665832  0.57794416    -0.12800
C1206       C  0.27679245  0.49825551  0.55150203    -0.08500
C1207       C  0.29610174  0.47912349  0.55246188     0.07100
C1208       C  0.31556970  0.48064750  0.57710583    -0.13500
S1209       S  0.29391519  0.54261417  0.63579421    -0.30500
H1210       H  0.26078610  0.53124561  0.57734984     0.11400
S1211       S  0.29770276  0.45316086  0.52164980    -0.27600
H1212       H  0.33132096  0.46697115  0.57616104     0.08600
H1213       H  0.42178916  0.54225599  0.60992412     0.27000
H1214       H  0.26933460  0.55208905  0.62748005     0.21800
H1215       H  0.27132921  0.45323348  0.51367732     0.27200
H1216       H  0.30711663  0.46919726  0.65225935     0.16000
C1217       C  0.49418359  0.16019827  0.65815265    -0.11300
C1218       C  0.48286874  0.16228933  0.62557604     0.15200
C1219       C  0.47221472  0.14006215  0.61001664     0.02100
C1220       C  0.47331994  0.11641319  0.62718966    -0.15700
C1221       C  0.48580404  0.11411295  0.65898884    -0.10500
C1222       C  0.49558999  0.13651969  0.67507777     0.08900
C1223       C  0.48528205  0.18699968  0.60685341     0.09900
S1224       S  0.45851643  0.14010467  0.56740278    -0.24800
H1225       H  0.46579373  0.09937382  0.61463943     0.20200
S1226       S  0.50993191  0.13624762  0.71728974    -0.30500
H1227       H  0.50238492  0.17711500  0.67023402     0.10500
C1228       C  0.46384804  0.20209291  0.59731292     0.03700
C1229       C  0.46714951  0.22244527  0.57395877    -0.12800
C1230       C  0.49153459  0.22811086  0.56062605    -0.08500
C1231       C  0.51320363  0.21475668  0.57334810     0.07100
C1232       C  0.50984447  0.19434049  0.59607441    -0.13500
S1233       S  0.43228971  0.19470850  0.61364176    -0.30500
H1234       H  0.45054177  0.23265926  0.56420957     0.11400
S1235       S  0.54553570  0.22157727  0.55951646    -0.27600
H1236       H  0.52644964  0.18320030  0.60402612     0.08600
H1237       H  0.49413543  0.11666695  0.73031648     0.27000
H1238       H  0.41967142  0.21605316  0.59914628     0.21800
H1239       H  0.54082504  0.24721021  0.55019151     0.27200
H1240       H  0.47531492  0.15843511  0.55349568     0.16000
C1241       C  0.50078467  0.34994926  0.86592953    -0.11300
C1242       C  0.50253460  0.35861798  0.90003610     0.15200
C1243       C  0.50850179  0.38460175  0.90668166     0.02100
C1244       C  0.51217837  0.40140498  0.87909955    -0.15700
C1245       C  0.50952826  0.39300273  0.84485811    -0.10500
C1246       C  0.50419406  0.36681059  0.83825831     0.08900
C1247       C  0.49939579  0.33950868  0.92776203     0.09900
S1248       S  0.51117795  0.39757955  0.94961174    -0.24800
H1249       H  0.51611441  0.42148819  0.88448906     0.20200
S1250       S  0.50281457  0.35442690  0.79482734    -0.30500
H1251       H  0.49683389  0.32980746  0.86112088     0.10500
C1252       C  0.47516733  0.32899877  0.93550570     0.03700
C1253       C  0.47360370  0.30790698  0.95778507    -0.12800
C1254       C  0.49579504  0.29720130  0.97242944    -0.08500
C1255       C  0.51991386  0.30869966  0.96604633     0.07100
C1256       C  0.52139575  0.32978308  0.94392980    -0.13500
S1257       S  0.44642845  0.34177844  0.91580532    -0.30500
H1258       H  0.45527485  0.29870810  0.96206059     0.11400
S1259       S  0.54982849  0.29632815  0.98283451    -0.27600
H1260       H  0.54001786  0.33787757  0.93790288     0.08600
H1261       H  0.49793014  0.32862689  0.80335243     0.27000
H1262       H  0.42898156  0.32525083  0.93218011     0.21800
H1263       H  0.53948626  0.28118128  0.00897891     0.27200
H1264       H  0.49412731  0.38033121  0.96532412     0.16000
C1265       C  0.45739238  0.31770704  0.57856442    -0.11300
C1266       C  0.47838389  0.32843769  0.59606106     0.15200
C1267       C  0.50316518  0.31797032  0.59091528     0.02100
C1268       C  0.50646864  0.29762026  0.56770676    -0.15700
C1269       C  0.48562518  0.28729597  0.54956278    -0.10500
C1270       C  0.46071424  0.29727690  0.55535574     0.08900
C1271       C  0.47415589  0.35162986  0.61753707     0.09900
S1272       S  0.53149336  0.33039747  0.61190624    -0.24800
H1273       H  0.52557770  0.29005994  0.56323835     0.20200
S1274       S  0.43092561  0.28592093  0.02807672    -0.30500
H1275       H  0.43836049  0.32577055  0.58238168     0.10500
C1276       C  0.47913162  0.37637470  0.60461251     0.03700
C1277       C  0.47587199  0.39785446  0.62608348    -0.12800
C1278       C  0.46780134  0.39517987  0.66037958    -0.08500
C1279       C  0.46198835  0.37033716  0.67284017     0.07100
C1280       C  0.46532115  0.34886419  0.65134716    -0.13500
S1281       S  0.48997391  0.38052341  0.56087017    -0.30500
H1282       H  0.48039778  0.41680708  0.61639814     0.11400
S1283       S  0.44962811  0.36480632  0.71539850    -0.27600
H1284       H  0.46112868  0.32982428  0.66106675     0.08600
H1285       H  0.44100670  0.26302493  0.01435624     0.27000
H1286       H  0.49103874  0.40756246  0.56150659     0.21800
H1287       H  0.43506653  0.38763844  0.71685726     0.27200
H1288       H  0.51915418  0.34014216  0.64129201     0.16000
C1289       C  0.54354476  0.82287762  0.92769953    -0.11300
C1290       C  0.52425831  0.82103523  0.90270304     0.15200
C1291       C  0.51048431  0.79774885  0.89937411     0.02100
C1292       C  0.51322267  0.77871950  0.92456642    -0.15700
C1293       C  0.53038932  0.78199235  0.95209375    -0.10500
C1294       C  0.54712901  0.80343027  0.95191551     0.08900
C1295       C  0.51717418  0.84472318  0.88363890     0.09900
S1296       S  0.48812846  0.79190527  0.86480120    -0.24800
H1297       H  0.50053066  0.76225692  0.92390428     0.20200
S1298       S  0.56690387  0.80646640  0.48285017    -0.30500
H1299       H  0.55496472  0.84023951  0.92956694     0.10500
C1300       C  0.49325719  0.85706088  0.88893139     0.03700
C1301       C  0.48801023  0.88044115  0.87236638    -0.12800
C1302       C  0.50642203  0.89229826  0.85143334    -0.08500
C1303       C  0.53034450  0.87977883  0.84610058     0.07100
C1304       C  0.53548515  0.85636435  0.86244719    -0.13500
S1305       S  0.47011958  0.84420404  0.91888545    -0.30500
H1306       H  0.46984244  0.89008182  0.87683086     0.11400
S1307       S  0.55490699  0.89218945  0.81810159    -0.27600
H1308       H  0.55394167  0.84707938  0.85859647     0.08600
H1309       H  0.56854586  0.78066884  0.49311075     0.27000
H1310       H  0.45075553  0.86265561  0.91325880     0.21800
H1311       H  0.53759335  0.90058845  0.79269525     0.27200
H1312       H  0.49915862  0.80940953  0.84168650     0.16000
C1313       C  0.47564001  0.68977744  0.57777993    -0.11300
C1314       C  0.49397196  0.67003971  0.57988475     0.15200
C1315       C  0.51463090  0.66967154  0.55621093     0.02100
C1316       C  0.51843767  0.69084796  0.53460964    -0.15700
C1317       C  0.50115963  0.71160603  0.53477211    -0.10500
C1318       C  0.47865115  0.71009593  0.55488671     0.08900
C1319       C  0.49147948  0.65130574  0.60837290     0.09900
S1320       S  0.53693231  0.64314500  0.55274506    -0.24800
H1321       H  0.53546460  0.69156992  0.51865349     0.20200
S1322       S  0.45331033  0.73381926  0.55298085    -0.30500
H1323       H  0.45917890  0.68975971  0.59481498     0.10500
C1324       C  0.51030545  0.64924684  0.63436471     0.03700
C1325       C  0.50664575  0.63184065  0.66132055    -0.12800
C1326       C  0.48397970  0.61726543  0.66407424    -0.08500
C1327       C  0.46425377  0.62120339  0.63956504     0.07100
C1328       C  0.46853370  0.63743360  0.61157682    -0.13500
S1329       S  0.53835392  0.66971783  0.63452630    -0.30500
H1330       H  0.52169012  0.62952691  0.68028418     0.11400
S1331       S  0.43260598  0.60772158  0.64360918    -0.27600
H1332       H  0.45345425  0.63994576  0.59263362     0.08600
H1333       H  0.45798218  0.74103710  0.51874886     0.27000
H1334       H  0.55020577  0.65919204  0.66379431     0.21800
H1335       H  0.43153218  0.61075227  0.67952899     0.27200
H1336       H  0.52035638  0.62442565  0.56622709     0.16000
C1337       C  0.54500140  0.69676716  0.91694074    -0.11300
C1338       C  0.52316998  0.68155584  0.91123390     0.15200
C1339       C  0.50053654  0.68678909  0.93009813     0.02100
C1340       C  0.50016198  0.70726474  0.95358530    -0.15700
C1341       C  0.52218869  0.72206443  0.95996295    -0.10500
C1342       C  0.54489073  0.71655836  0.94146346     0.08900
C1343       C  0.52528338  0.65929160  0.88739946     0.09900
S1344       S  0.47184493  0.66756553  0.92646000    -0.24800
H1345       H  0.48274685  0.71125389  0.96788635     0.20200
S1346       S  0.57475169  0.73278879  0.94974180    -0.30500
H1347       H  0.56257194  0.69252945  0.90306484     0.10500
C1348       C  0.51251412  0.65858632  0.85548579     0.03700
C1349       C  0.51406663  0.63628682  0.83499665    -0.12800
C1350       C  0.52864789  0.61473295  0.84533368    -0.08500
C1351       C  0.54285394  0.61646122  0.87645827     0.07100
C1352       C  0.54058919  0.63837752  0.89722205    -0.13500
S1353       S  0.49438824  0.68612999  0.84080229    -0.30500
H1354       H  0.50337647  0.63550263  0.81115507     0.11400
S1355       S  0.56491075  0.59200028  0.89100631    -0.27600
H1356       H  0.55098188  0.63920478  0.92135545     0.08600
H1357       H  0.57088000  0.73476884  0.98540876     0.27000
H1358       H  0.48804721  0.67616779  0.80823248     0.21800
H1359       H  0.57586960  0.58826609  0.85832999     0.27200
H1360       H  0.48430923  0.64416452  0.91910095     0.16000
C1361       C  0.18410391  0.95861658  0.59424423    -0.11300
C1362       C  0.17964357  0.98399060  0.60493093     0.15200
C1363       C  0.19699891  0.00343908  0.59487457     0.02100
C1364       C  0.21697445  0.99741899  0.57191852    -0.15700
C1365       C  0.22013555  0.97231221  0.55911887    -0.10500
C1366       C  0.20403119  0.95253184  0.57158816     0.08900
C1367       C  0.15556968  0.98929541  0.62419811     0.09900
S1368       S  0.19386613  0.03639391  0.60894472    -0.24800
H1369       H  0.22909727  0.01272266  0.56238258     0.20200
S1370       S  0.19853264  0.92404217  0.04632526    -0.30500
H1371       H  0.17112825  0.94354031  0.60237674     0.10500
C1372       C  0.13398871  0.00068120  0.60819380     0.03700
C1373       C  0.11046383  0.00211184  0.62594398    -0.12800
C1374       C  0.10797736  0.99188510  0.65910033    -0.08500
C1375       C  0.12995113  0.98144224  0.67547079     0.07100
C1376       C  0.15330945  0.98002265  0.65778764    -0.13500
S1377       S  0.13586651  0.01154277  0.56423993    -0.30500
H1378       H  0.09363867  0.00995714  0.61334077     0.11400
S1379       S  0.12945351  0.96959462  0.71896180    -0.27600
H1380       H  0.16981427  0.97124146  0.67011820     0.08600
H1381       H  0.22469824  0.92339727  0.03760582     0.27000
H1382       H  0.11052202  0.02085484  0.56187511     0.21800
H1383       H  0.11123380  0.98753598  0.73095570     0.27200
H1384       H  0.18037351  0.03115459  0.63936995     0.16000
C1385       C  0.32401433  0.94752235  0.94331372    -0.11300
C1386       C  0.33313518  0.97056332  0.92933721     0.15200
C1387       C  0.32236493  0.99414563  0.94046541     0.02100
C1388       C  0.30157265  0.99406687  0.96330116    -0.15700
C1389       C  0.29165016  0.97094897  0.97606378    -0.10500
C1390       C  0.30351354  0.94746604  0.96658229     0.08900
C1391       C  0.35183987  0.96924770  0.90064048     0.09900
S1392       S  0.33333311  0.02483049  0.92488202    -0.24800
H1393       H  0.29211458  0.01209271  0.96945832     0.20200
S1394       S  0.28851766  0.90969618  0.46848392    -0.30500
H1395       H  0.33218322  0.92936715  0.93484400     0.10500
C1396       C  0.37784422  0.96297213  0.90611629     0.03700
C1397       C  0.39491123  0.96277127  0.87817588    -0.12800
C1398       C  0.38652771  0.96861536  0.84465395    -0.08500
C1399       C  0.36003513  0.97349387  0.83913889     0.07100
C1400       C  0.34316487  0.97410526  0.86715348    -0.13500
S1401       S  0.38953092  0.95660370  0.94896811    -0.30500
H1402       H  0.41511067  0.95910798  0.88275958     0.11400
S1403       S  0.34632116  0.97841022  0.79709010    -0.27600
H1404       H  0.32299548  0.97824856  0.86281893     0.08600
H1405       H  0.27731675  0.91586978  0.50025561     0.27000
H1406       H  0.41511683  0.95120256  0.93974299     0.21800
H1407       H  0.36270021  0.96075891  0.78042461     0.27200
H1408       H  0.35886306  0.01713976  0.91884817     0.16000
C1409       C  0.30819973  0.97166899  0.59853412    -0.11300
C1410       C  0.31625446  0.99741480  0.59893013     0.15200
C1411       C  0.30519394  0.01489400  0.57539192     0.02100
C1412       C  0.28688099  0.00615473  0.55161881    -0.15700
C1413       C  0.27936136  0.98028629  0.55066666    -0.10500
C1414       C  0.28992353  0.96295632  0.57460086     0.08900
C1415       C  0.33823037  0.00458802  0.62140715     0.09900
S1416       S  0.31411928  0.04835822  0.57387125    -0.24800
H1417       H  0.27854383  0.01953639  0.53345277     0.20200
S1418       S  0.28089672  0.92954364  0.57374172    -0.30500
H1419       H  0.31693292  0.95825360  0.61631527     0.10500
C1420       C  0.33554682  0.00795354  0.65719667     0.03700
C1421       C  0.35740564  0.01311609  0.67746859    -0.12800
C1422       C  0.38200661  0.01485858  0.66267524    -0.08500
C1423       C  0.38446534  0.01107025  0.62667609     0.07100
C1424       C  0.36262852  0.00647919  0.60658613    -0.13500
S1425       S  0.30422414  0.00599255  0.67686274    -0.30500
H1426       H  0.35534179  0.01583320  0.70492173     0.11400
S1427       S  0.41500393  0.00977723  0.60487447    -0.27600
H1428       H  0.36478769  0.00334304  0.57918144     0.08600
H1429       H  0.29614532  0.92169649  0.60168375     0.27000
H1430       H  0.31236401  0.01068853  0.71078644     0.21800
H1431       H  0.42709684  0.99483267  0.63030810     0.27200
H1432       H  0.32094004  0.05061100  0.60870555     0.16000
C1433       C  0.79989717  0.01474508  0.90652575    -0.11300
C1434       C  0.81689651  0.99474486  0.91539923     0.15200
C1435       C  0.81078042  0.97886404  0.94360796     0.02100
C1436       C  0.78863665  0.98397438  0.96285056    -0.15700
C1437       C  0.77310050  0.00554731  0.95614306    -0.10500
C1438       C  0.77843537  0.02061413  0.92693436     0.08900
C1439       C  0.84244841  0.99364633  0.89832119     0.09900
S1440       S  0.83165281  0.95355903  0.95884997    -0.24800
H1441       H  0.78344365  0.97338666  0.48320948     0.20200
S1442       S  0.76054186  0.04925358  0.91681324    -0.30500
H1443       H  0.80454044  0.02715837  0.88511506     0.10500
C1444       C  0.85053650  0.97266802  0.87784268     0.03700
C1445       C  0.87541613  0.97269514  0.86357308    -0.12800
C1446       C  0.89222856  0.99348631  0.86891608    -0.08500
C1447       C  0.88408067  0.01422986  0.88998511     0.07100
C1448       C  0.85938094  0.01415245  0.90404619    -0.13500
S1449       S  0.82881184  0.94652754  0.86855421    -0.30500
H1450       H  0.88144218  0.95696693  0.84710953     0.11400
S1451       S  0.90445457  0.04112037  0.90084380    -0.27600
H1452       H  0.85341587  0.03010510  0.92023136     0.08600
H1453       H  0.76215636  0.05927975  0.95034522     0.27000
H1454       H  0.84638452  0.93131691  0.84994130     0.21800
H1455       H  0.92734179  0.02667144  0.90217215     0.27200
H1456       H  0.85487964  0.96606844  0.95141827     0.16000
C1457       C  0.67443761  0.05519981  0.57837345    -0.11300
C1458       C  0.65754604  0.03436465  0.58020113     0.15200
C1459       C  0.66037518  0.01373850  0.55664072     0.02100
C1460       C  0.68151659  0.01325759  0.53429628    -0.15700
C1461       C  0.69960664  0.03323444  0.53443290    -0.10500
C1462       C  0.69524734  0.05499711  0.55575239     0.08900
C1463       C  0.63877790  0.03399382  0.60888632     0.09900
S1464       S  0.63844111  0.98695442  0.55498460    -0.24800
H1465       H  0.68462532  0.99649640  0.51817139     0.20200
S1466       S  0.71604274  0.08277684  0.55686258    -0.30500
H1467       H  0.67204851  0.07131503  0.59586482     0.10500
C1468       C  0.64148300  0.01670111  0.63644573     0.03700
C1469       C  0.62357859  0.01724068  0.66332219    -0.12800
C1470       C  0.60314018  0.03514056  0.66400726    -0.08500
C1471       C  0.60171885  0.05367037  0.63732297     0.07100
C1472       C  0.61921297  0.05257053  0.60998195    -0.13500
S1473       S  0.66820948  0.99440352  0.63804781    -0.30500
H1474       H  0.62544080  0.00328048  0.68372221     0.11400
S1475       S  0.57872785  0.07965902  0.63666219    -0.27600
H1476       H  0.61778068  0.06657070  0.58949613     0.08600
H1477       H  0.72810893  0.07873969  0.52511376     0.27000
H1478       H  0.66104998  0.98181259  0.66847692     0.21800
H1479       H  0.58255453  0.08616962  0.67143406     0.27200
H1480       H  0.61716343  0.00015877  0.56869942     0.16000
C1481       C  0.67509707  0.02540926  0.92359191    -0.11300
C1482       C  0.67525605  0.00105494  0.90800283     0.15200
C1483       C  0.69531957  0.98369014  0.91595995     0.02100
C1484       C  0.71346848  0.99031900  0.94115154    -0.15700
C1485       C  0.71290177  0.01445139  0.95761558    -0.10500
C1486       C  0.69389866  0.03250988  0.94752840     0.08900
C1487       C  0.65372413  0.99445634  0.88444111     0.09900
S1488       S  0.69881505  0.95287804  0.89497703    -0.24800
H1489       H  0.72803500  0.97639558  0.94825739     0.20200
S1490       S  0.69207941  0.06622584  0.46358953    -0.30500
H1491       H  0.66015006  0.03909408  0.91692764     0.10500
C1492       C  0.63435155  0.97702275  0.89402589     0.03700
C1493       C  0.61296464  0.97341892  0.87245924    -0.12800
C1494       C  0.60998682  0.98735407  0.84167872    -0.08500
C1495       C  0.62977475  0.00476474  0.83221048     0.07100
C1496       C  0.65136152  0.00778042  0.85338483    -0.13500
S1497       S  0.63603167  0.96054401  0.93477967    -0.30500
H1498       H  0.59812294  0.96011161  0.88019167     0.11400
S1499       S  0.62825755  0.02516072  0.79490885    -0.27600
H1500       H  0.66606881  0.02148116  0.84625184     0.08600
H1501       H  0.71867727  0.06796229  0.46846888     0.27000
H1502       H  0.61313826  0.94647342  0.93117805     0.21800
H1503       H  0.60421663  0.03568756  0.80391440     0.27200
H1504       H  0.68654802  0.95981067  0.86416224     0.16000
C1505       C  0.97733212  0.14548456  0.87389878    -0.11300
C1506       C  0.97633341  0.13709373  0.90809809     0.15200
C1507       C  0.97301316  0.11068317  0.91494810     0.02100
C1508       C  0.97239890  0.09314153  0.88754473    -0.15700
C1509       C  0.97460364  0.10138512  0.85327220    -0.10500
C1510       C  0.97632738  0.12797783  0.84641621     0.08900
C1511       C  0.97928973  0.15663740  0.93559287     0.09900
S1512       S  0.96987906  0.09812991  0.95790631    -0.24800
H1513       H  0.97077400  0.07279295  0.89310757     0.20200
S1514       S  0.97624085  0.13988184  0.80286513    -0.30500
H1515       H  0.97924090  0.16586510  0.86885315     0.10500
C1516       C  0.00241223  0.15926334  0.95429034     0.03700
C1517       C  0.00584377  0.18079281  0.97574613    -0.12800
C1518       C  0.98666096  0.19969523  0.97851866    -0.08500
C1519       C  0.96281672  0.19586942  0.96195939     0.07100
C1520       C  0.95948265  0.17458300  0.94043003    -0.13500
S1521       S  0.02841656  0.13659830  0.94839279    -0.30500
H1522       H  0.02416127  0.18391796  0.98826963     0.11400
S1523       S  0.93631986  0.21811953  0.96614386    -0.27600
H1524       H  0.94159976  0.17240552  0.92643783     0.08600
H1525       H  0.97788417  0.16620707  0.81106007     0.27000
H1526       H  0.04461919  0.14677660  0.97398345     0.21800
H1527       H  0.94342360  0.22765318  0.99865436     0.27200
H1528       H  0.95986273  0.12062762  0.97298578     0.16000
C1529       C  0.01217267  0.15086582  0.66130841    -0.11300
C1530       C  0.01054773  0.14732122  0.62562295     0.15200
C1531       C  0.01375118  0.12236553  0.61183838     0.02100
C1532       C  0.01773660  0.10154669  0.63394605    -0.15700
C1533       C  0.01907052  0.10478952  0.66986542    -0.10500
C1534       C  0.01665278  0.13004515  0.68348316     0.08900
C1535       C  0.00553411  0.16985209  0.60323389     0.09900
S1536       S  0.01217946  0.11557109  0.56632187    -0.24800
H1537       H  0.01938647  0.08247416  0.62281007     0.20200
S1538       S  0.01992368  0.13729277  0.72855006    -0.30500
H1539       H  0.01009856  0.17006172  0.67194540     0.10500
C1540       C  0.98091811  0.17476561  0.58953135     0.03700
C1541       C  0.97761358  0.19474693  0.56568631    -0.12800
C1542       C  0.99849500  0.20968853  0.55481569    -0.08500
C1543       C  0.02309000  0.20469372  0.56871708     0.07100
C1544       C  0.02624221  0.18530494  0.59328803    -0.13500
S1545       S  0.95386132  0.15526831  0.60199349    -0.30500
H1546       H  0.95881992  0.19855387  0.55486381     0.11400
S1547       S  0.05149322  0.22070581  0.55379353    -0.27600
H1548       H  0.04527064  0.18123069  0.60327732     0.08600
H1549       H  0.04036121  0.11996755  0.73385715     0.27000
H1550       H  0.93571633  0.16701835  0.58025362     0.21800
H1551       H  0.04366596  0.22093270  0.51920004     0.27200
H1552       H  0.02142391  0.13940524  0.55489616     0.16000
C1553       C  0.02543828  0.30932544  0.58112505    -0.11300
C1554       C  0.00769945  0.31045496  0.60808728     0.15200
C1555       C  0.99065828  0.28967256  0.61300455     0.02100
C1556       C  0.99009986  0.26951087  0.58893332    -0.15700
C1557       C  0.00618267  0.26978901  0.56000720    -0.10500
C1558       C  0.02493806  0.28934039  0.55712628     0.08900
C1559       C  0.00448650  0.33556147  0.62577981     0.09900
S1560       S  0.96803801  0.28878131  0.64801479    -0.24800
H1561       H  0.97557624  0.25472458  0.59128787     0.20200
S1562       S  0.04737527  0.29150692  0.52185954    -0.30500
H1563       H  0.03857914  0.32519499  0.57722624     0.10500
C1564       C  0.02448730  0.34680541  0.64504126     0.03700
C1565       C  0.02210079  0.37241892  0.65625824    -0.12800
C1566       C  0.00008061  0.38707868  0.64860276    -0.08500
C1567       C  0.98001111  0.37558177  0.62940603     0.07100
C1568       C  0.98233899  0.35000229  0.61860209    -0.13500
S1569       S  0.05281082  0.32834147  0.65579852    -0.30500
H1570       H  0.03727813  0.38095652  0.67151452     0.11400
S1571       S  0.95171763  0.39288947  0.61580090    -0.27600
H1572       H  0.96725364  0.34163967  0.60294485     0.08600
H1573       H  0.04486036  0.26623699  0.50968921     0.27000
H1574       H  0.06550671  0.34789509  0.67418150     0.21800
H1575       H  0.96493101  0.41587242  0.60896447     0.27200
H1576       H  0.98213222  0.30490706  0.67013054     0.16000
C1577       C  0.99801293  0.81232825  0.58404341    -0.11300
C1578       C  0.01962640  0.82838133  0.58476615     0.15200
C1579       C  0.03980422  0.82396382  0.56110764     0.02100
C1580       C  0.03803136  0.80338598  0.53789595    -0.15700
C1581       C  0.01718821  0.78639569  0.53890096    -0.10500
C1582       C  0.99667099  0.79126864  0.56171100     0.08900
C1583       C  0.02124303  0.84785776  0.61257588     0.09900
S1584       S  0.06919277  0.84230953  0.56099150    -0.24800
H1585       H  0.05402174  0.79935217  0.52087821     0.20200
S1586       S  0.96893964  0.77062668  0.56530100    -0.30500
H1587       H  0.98249924  0.81563049  0.60210669     0.10500
C1588       C  0.02098532  0.87449106  0.60596478     0.03700
C1589       C  0.02226012  0.89185603  0.63362949    -0.12800
C1590       C  0.02292420  0.88314979  0.66780700    -0.08500
C1591       C  0.02313028  0.85644356  0.67425936     0.07100
C1592       C  0.02228017  0.83917171  0.64666157    -0.13500
S1593       S  0.01735636  0.88635889  0.56264118    -0.30500
H1594       H  0.02154701  0.91233980  0.62873506     0.11400
S1595       S  0.02482364  0.84316191  0.71693889    -0.27600
H1596       H  0.02246646  0.81868721  0.65177275     0.08600
H1597       H  0.97215331  0.75672779  0.53462852     0.27000
H1598       H  0.01886585  0.91270102  0.57080346     0.21800
H1599       H  0.04008912  0.86294730  0.73077892     0.27200
H1600       H  0.06955838  0.84784037  0.59635441     0.16000
C1601       C  0.98394796  0.83240676  0.85853095    -0.11300
C1602       C  0.99016867  0.83591655  0.89333903     0.15200
C1603       C  0.99078812  0.86108538  0.90704566     0.02100
C1604       C  0.98498466  0.88204053  0.88595211    -0.15700
C1605       C  0.97912418  0.87879456  0.85091351    -0.10500
C1606       C  0.97823004  0.85348535  0.83727573     0.08900
C1607       C  0.99546254  0.81321373  0.91527179     0.09900
S1608       S  0.99906588  0.86783152  0.95124628    -0.24800
H1609       H  0.98602864  0.90123134  0.89684597     0.20200
S1610       S  0.96894467  0.84668980  0.79355985    -0.30500
H1611       H  0.98314090  0.81308940  0.84801330     0.10500
C1612       C  0.97709917  0.80420290  0.93890480     0.03700
C1613       C  0.98408616  0.78518756  0.96269335    -0.12800
C1614       C  0.00912722  0.77517842  0.96363599    -0.08500
C1615       C  0.02725652  0.78370852  0.93929577     0.07100
C1616       C  0.02014457  0.80228472  0.91502485    -0.13500
S1617       S  0.94490602  0.81725845  0.93907727    -0.30500
H1618       H  0.97013409  0.77822682  0.98092012     0.11400
S1619       S  0.06006449  0.77274136  0.93926122    -0.27600
H1620       H  0.03436248  0.80933861  0.89707955     0.08600
H1621       H  0.95073043  0.86669548  0.79157890     0.27000
H1622       H  0.93596916  0.80330848  0.96754404     0.21800
H1623       H  0.06196133  0.77042672  0.97512619     0.27200
H1624       H  0.01648216  0.84736755  0.95538884     0.16000
C1625       C  0.03452422  0.68004562  0.92091967    -0.11300
C1626       C  0.01041791  0.67759416  0.90523791     0.15200
C1627       C  0.99087790  0.69559017  0.91311816     0.02100
C1628       C  0.99544742  0.71466083  0.93796838    -0.15700
C1629       C  0.01914807  0.71610717  0.95512219    -0.10500
C1630       C  0.03916024  0.69903086  0.94558937     0.08900
C1631       C  0.00584102  0.65433631  0.88400689     0.09900
S1632       S  0.95945785  0.69441811  0.89363347    -0.24800
H1633       H  0.97991304  0.72744487  0.94539905     0.20200
S1634       S  0.07074483  0.69884188  0.45605653    -0.30500
H1635       H  0.04958524  0.66628896  0.91491700     0.10500
C1636       C  0.01886988  0.65036324  0.85275223     0.03700
C1637       C  0.01720460  0.62637697  0.83626158    -0.12800
C1638       C  0.00261185  0.60620154  0.85021129    -0.08500
C1639       C  0.98873782  0.61071729  0.88086873     0.07100
C1640       C  0.99064178  0.63457712  0.89750429    -0.13500
S1641       S  0.03781327  0.67580470  0.83410675    -0.30500
H1642       H  0.02761577  0.62317969  0.81254818     0.11400
S1643       S  0.97020547  0.58615056  0.90153246    -0.27600
H1644       H  0.98090418  0.63748611  0.92182271     0.08600
H1645       H  0.07061015  0.72342158  0.47095471     0.27000
H1646       H  0.04609531  0.66198327  0.80499567     0.21800
H1647       H  0.95295108  0.58464811  0.87382317     0.27200
H1648       H  0.96730123  0.68236206  0.86297720     0.16000
loop_ 
_geom_bond_atom_site_label_1 
_geom_bond_atom_site_label_2 
_geom_bond_distance 
_geom_bond_site_symmetry_2 
_ccdc_geom_bond_type 
N1            C2   1.356       .  A
N1          C829   1.354       .  A
N1          C790   1.441       .  S
C2          C805   1.475       .  S
C2          C827   1.384       .  A
C3            C4   1.373       .  A
C3          C826   1.384   1_554  A
C3            H6   1.082       .  S
C4            C5   1.380       .  A
C4            H7   1.082       .  S
C5          N825   1.355   1_554  A
C5          C757   1.472       .  S
N8            C9   1.360       .  A
N8          C836   1.357   1_454  A
N8          C718   1.443       .  S
C9          C733   1.481       .  S
C9          C834   1.384   1_554  A
C10          C11   1.369       .  A
C10         C833   1.383       .  A
C10          H13   1.082       .  S
C11          C12   1.381       .  A
C11          H14   1.082       .  S
C12         N832   1.357       .  A
C12         C694   1.477       .  S
N15          C16   1.364       .  A
N15         C843   1.365       .  A
N15         C661   1.449       .  S
C16         C613   1.483       .  S
C16         C841   1.381       .  A
C17          C18   1.366       .  A
C17         C840   1.381   1_554  A
C17          H20   1.082       .  S
C18          C19   1.382       .  A
C18          H21   1.082       .  S
C19         N839   1.366   1_554  A
C19         C637   1.486       .  S
N22          C23   1.360       .  A
N22         C850   1.360   1_554  A
N22         C589   1.444       .  S
C23         C541   1.481       .  S
C23         C848   1.384   1_554  A
C24          C25   1.372       .  A
C24         C847   1.383       .  A
C24          H27   1.082       .  S
C25          C26   1.382       .  A
C25          H28   1.082       .  S
C26         N846   1.359       .  A
C26         C565   1.480       .  S
N29          C30   1.362       .  A
N29         C857   1.359       .  A
N29         C517   1.447       .  S
C30         C469   1.481       .  S
C30         C855   1.384       .  A
C31          C32   1.370       .  A
C31         C854   1.385   1_554  A
C31          H34   1.082       .  S
C32          C33   1.379       .  A
C32          H35   1.082       .  S
C33         N853   1.358   1_554  A
C33         C493   1.478       .  S
N36          C37   1.354       .  A
N36         C864   1.355   1_554  A
N36         C445   1.436       .  S
C37         C406   1.476       .  S
C37         C862   1.383   1_554  A
C38          C39   1.374       .  A
C38         C861   1.383       .  A
C38          H41   1.082       .  S
C39          C40   1.380       .  A
C39          H42   1.082       .  S
C40         N860   1.356       .  A
C40         C430   1.476       .  S
N43          C44   1.357       .  A
N43         C871   1.359   1_554  A
N43         C358   1.441       .  S
C44         C382   1.480       .  S
C44         C869   1.383   1_554  A
C45          C46   1.372       .  A
C45         C868   1.382       .  A
C45          H48   1.082       .  S
C46          C47   1.383       .  A
C46          H49   1.082       .  S
C47         N867   1.359       .  A
C47         C334   1.481       .  S
N50          C51   1.360       .  A
N50         C878   1.358       .  A
N50         C286   1.443       .  S
C51         C301   1.482       .  S
C51         C876   1.384       .  A
C52          C53   1.369       .  A
C52         C875   1.384   1_554  A
C52          H55   1.082       .  S
C53          C54   1.380       .  A
C53          H56   1.082       .  S
C54         N874   1.358   1_554  A
C54         C253   1.477       .  S
O57         Mg59   2.139       .  S
O57         Mg65   2.137       .  S
O57          C92   1.238       .  S
C58          H97   1.081       .  S
C58          O71   1.238       .  S
C58          O95   1.273       .  A
Mg59         O88   2.140       .  S
Mg59        O103   2.299       .  S
Mg59         O99   2.264       .  S
Mg59         O70   2.294       .  S
O60        Mg102   2.140       .  S
O60         Mg85   2.133       .  S
O60          C81   1.240       .  S
O61          C92   1.273       .  A
O61         Mg85   2.310       .  S
C62         C421   1.487       .  S
C62          O64   1.274       .  A
C62          O76   1.277       .  A
O63          C91   1.274       .  A
O63         Mg65   2.306       .  S
O64         Mg96   2.273       .  S
Mg65         O71   2.148       .  S
Mg65         O79   2.287       .  S
Mg65         O67   2.328       .  S
C66         C310   1.490       .  S
C66         O104   1.273       .  A
C66          O72   1.277       .  A
O67          C74   1.278       .  A
H68          C81   1.081       .  S
C69          H94   1.081       .  S
C69          O83   1.238       .  S
C69          O84   1.272       .  A
O70          C93   1.271       .  A
O71         Mg85   2.140       .  S
O72        Mg102   2.322       .  S
C73         C526   1.501       .  S
C73          O86   1.272       .  A
C73          O78   1.279       .  A
C74         C502   1.493       .  S
C74         O101   1.273       .  A
Mg75         O82   2.125       .  S
Mg75         O83   2.137       .  S
Mg75         O76   2.312       .  S
Mg75         O77   2.303       .  S
Mg75        O104   2.259       .  S
O77          C81   1.273       .  A
O78         Mg85   2.337       .  S
O79          C98   1.275       .  A
O80         C100   1.277       .  A
O80         Mg96   2.323       .  S
O82         Mg96   2.140       .  S
O82          C93   1.238       .  S
O83        Mg102   2.130       .  S
O84         Mg96   2.299       .  S
Mg85        O101   2.256       .  S
O86        Mg102   2.269       .  S
H87          C92   1.081       .  S
O88         Mg96   2.135       .  S
O88          C91   1.239       .  S
H89          C91   1.081       .  S
H90          C93   1.081       .  S
O95        Mg102   2.305       .  S
C98         C373   1.482       .  S
C98         O103   1.274       .  A
O99         C100   1.273       .  A
C100        C454   1.487       .  S
O105       Mg107   2.137       .  S
O105       Mg113   2.134       .  S
O105        C140   1.239       .  S
C106        H145   1.081       .  S
C106        O119   1.237       .  S
C106        O143   1.271       .  A
Mg107       O136   2.140       .  S
Mg107       O151   2.326       .  S
Mg107       O147   2.269       .  S
Mg107       O118   2.300   1_545  S
O108       Mg150   2.144       .  S
O108       Mg133   2.129       .  S
O108        C129   1.239       .  S
O109        C140   1.273   1_565  A
O109       Mg133   2.308       .  S
C110        C574   1.489       .  S
C110        O112   1.273       .  A
C110        O124   1.276       .  A
O111        C139   1.273       .  A
O111       Mg113   2.302       .  S
O112       Mg144   2.267   1_565  S
Mg113       O119   2.129       .  S
Mg113       O127   2.251       .  S
Mg113       O115   2.322       .  S
C114        C478   1.483       .  S
C114        O152   1.273       .  A
C114        O120   1.276       .  A
O115        C122   1.276       .  A
H116        C129   1.081       .  S
C117        H142   1.081       .  S
C117        O131   1.239   1_545  S
C117        O132   1.273       .  A
O118        C141   1.272       .  A
O119       Mg133   2.133   1_545  S
O120       Mg150   2.314       .  S
C121        C670   1.501       .  S
C121        O134   1.275       .  A
C121        O126   1.276       .  A
C122        C646   1.497       .  S
C122        O149   1.274       .  A
Mg123       O130   2.133       .  S
Mg123       O131   2.142       .  S
Mg123       O124   2.308       .  S
Mg123       O125   2.299       .  S
Mg123       O152   2.260       .  S
O125        C129   1.272       .  A
O126       Mg133   2.324       .  S
O127        C146   1.272       .  A
O128        C148   1.278       .  A
O128       Mg144   2.328       .  S
O130       Mg144   2.142   1_565  S
O130        C141   1.238       .  S
O131       Mg150   2.137       .  S
O132       Mg144   2.303       .  S
Mg133       O149   2.263   1_565  S
O134       Mg150   2.271       .  S
H135        C140   1.081   1_565  S
O136       Mg144   2.136       .  S
O136        C139   1.240       .  S
H137        C139   1.081       .  S
H138        C141   1.081       .  S
O143       Mg150   2.297   1_545  S
C146        C397   1.478       .  S
C146        O151   1.277       .  A
O147        C148   1.274       .  A
C148        C598   1.485       .  S
O153       Mg155   2.140   1_565  S
O153       Mg161   2.140       .  S
O153        C188   1.240   1_455  S
C154        H193   1.081       .  S
C154        O167   1.237       .  S
C154        O191   1.270       .  A
Mg155       O184   2.144       .  S
Mg155       O199   2.329       .  S
Mg155       O195   2.270       .  S
Mg155       O166   2.301   1_455  S
O156       Mg198   2.145       .  S
O156       Mg181   2.132       .  S
O156        C177   1.239       .  S
O157        C188   1.274       .  A
O157       Mg181   2.307       .  S
C158        C685   1.483       .  S
C158        O160   1.273       .  A
C158        O172   1.273       .  A
O159        C187   1.272   1_565  A
O159       Mg161   2.296       .  S
O160       Mg192   2.272   1_655  S
Mg161       O167   2.129       .  S
Mg161       O175   2.248       .  S
Mg161       O163   2.295       .  S
C162        C622   1.482       .  S
C162        O200   1.270   1_565  A
C162        O168   1.279       .  A
O163        C170   1.274       .  A
H164        C177   1.081       .  S
C165        H190   1.081   1_655  S
C165        O179   1.240       .  S
C165        O180   1.274   1_655  A
O166        C189   1.271       .  A
O167       Mg181   2.136   1_455  S
O168       Mg198   2.340       .  S
C169        C781   1.492       .  S
C169        O182   1.277       .  A
C169        O174   1.278       .  A
C170        C766   1.480       .  S
C170        O197   1.273       .  A
Mg171       O178   2.137       .  S
Mg171       O179   2.139       .  S
Mg171       O172   2.290       .  S
Mg171       O173   2.297   1_545  S
Mg171       O200   2.246       .  S
O173        C177   1.272       .  A
O174       Mg181   2.325       .  S
O175        C194   1.271       .  A
O176        C196   1.280       .  A
O176       Mg192   2.338       .  S
O178       Mg192   2.141   1_655  S
O178        C189   1.237       .  S
O179       Mg198   2.147   1_545  S
O180       Mg192   2.311       .  S
Mg181       O197   2.273   1_655  S
O182       Mg198   2.282       .  S
H183        C188   1.081       .  S
O184       Mg192   2.129       .  S
O184        C187   1.239       .  S
H185        C187   1.081       .  S
H186        C189   1.081       .  S
O191       Mg198   2.298   1_455  S
C194        C550   1.480       .  S
C194        O199   1.277   1_565  A
O195        C196   1.275       .  A
C196        C709   1.492       .  S
O201       Mg203   2.132   1_655  S
O201       Mg209   2.137       .  S
O201        C236   1.239       .  S
C202        H241   1.081       .  S
C202        O215   1.237       .  S
C202        O239   1.270       .  A
Mg203       O232   2.134       .  S
Mg203       O247   2.317       .  S
Mg203       O243   2.261       .  S
Mg203       O214   2.302       .  S
O204       Mg246   2.143       .  S
O204       Mg229   2.129       .  S
O204        C225   1.238       .  S
O205        C236   1.273       .  A
O205       Mg229   2.303       .  S
C206        C325   1.487       .  S
C206        O208   1.272       .  A
C206        O220   1.276       .  A
O207        C235   1.273       .  A
O207       Mg209   2.301   1_455  S
O208       Mg240   2.263       .  S
Mg209       O215   2.128       .  S
Mg209       O223   2.256       .  S
Mg209       O211   2.284       .  S
C210        C814   1.479       .  S
C210        O248   1.271   1_655  A
C210        O216   1.277       .  A
O211        C218   1.272       .  A
H212        C225   1.081       .  S
C213        H238   1.081       .  S
C213        O227   1.240       .  S
C213        O228   1.274       .  A
O214        C237   1.271       .  A
O215       Mg229   2.146       .  S
O216       Mg246   2.326       .  S
C217        C277   1.500       .  S
C217        O230   1.274       .  A
C217        O222   1.281       .  A
C218        C262   1.485       .  S
C218        O245   1.275       .  A
Mg219       O226   2.129       .  S
Mg219       O227   2.143       .  S
Mg219       O220   2.310       .  S
Mg219       O221   2.296   1_455  S
Mg219       O248   2.246       .  S
O221        C225   1.272       .  A
O222       Mg229   2.336       .  S
O223        C242   1.271       .  A
O224        C244   1.279       .  A
O224       Mg240   2.341       .  S
O226       Mg240   2.136       .  S
O226        C237   1.237       .  S
O227       Mg246   2.146   1_455  S
O228       Mg240   2.309       .  S
Mg229       O245   2.284       .  S
O230       Mg246   2.271       .  S
H231        C236   1.081       .  S
O232       Mg240   2.129       .  S
O232        C235   1.240       .  S
H233        C235   1.081       .  S
H234        C237   1.081       .  S
O239       Mg246   2.294       .  S
C242        C742   1.482   1_655  S
C242        O247   1.276   1_655  A
O243        C244   1.273       .  A
C244        C349   1.488       .  S
C249        C250   1.400       .  A
C249        C254   1.398       .  A
C249        H259   1.084       .  S
C250        C255   1.476       .  S
C250        C251   1.412       .  A
C251        C252   1.399       .  A
C251        S256   1.803       .  S
C252        C253   1.402       .  A
C252        H257   1.083       .  S
C253        C254   1.413       .  A
C254        S258   1.804       .  S
C255        C260   1.409       .  A
C255        C264   1.396       .  A
S256        H272   1.405       .  S
S258        H269   1.407   1_554  S
C260        C261   1.404       .  A
C260        S265   1.807       .  S
C261        C262   1.405       .  A
C261        H266   1.083       .  S
C262        C263   1.421       .  A
C263        C264   1.397       .  A
C263        S267   1.801       .  S
C264        H268   1.084       .  S
S265        H270   1.407       .  S
S267        H271   1.406       .  S
C273        C274   1.401       .  A
C273        C278   1.400       .  A
C273        H283   1.084       .  S
C274        C279   1.490       .  S
C274        C275   1.413       .  A
C275        C276   1.404       .  A
C275        S280   1.805       .  S
C276        C277   1.411       .  A
C276        H281   1.083       .  S
C277        C278   1.422       .  A
C278        S282   1.801       .  S
C279        C284   1.413       .  A
C279        C288   1.405       .  A
S280        H296   1.406       .  S
S282        H293   1.408       .  S
C284        C285   1.404       .  A
C284        S289   1.807       .  S
C285        C286   1.403       .  A
C285        H290   1.082       .  S
C286        C287   1.411       .  A
C287        C288   1.402       .  A
C287        S291   1.799       .  S
C288        H292   1.084       .  S
S289        H294   1.407       .  S
S291        H295   1.404       .  S
C297        C298   1.398       .  A
C297        C302   1.395       .  A
C297        H307   1.085       .  S
C298        C303   1.484       .  S
C298        C299   1.415       .  A
C299        C300   1.405       .  A
C299        S304   1.803       .  S
C300        C301   1.404       .  A
C300        H305   1.084       .  S
C301        C302   1.417       .  A
C302       S1130   1.806       .  S
C303        C308   1.410       .  A
C303        C312   1.401       .  A
S304        H320   1.406       .  S
S306       C1126   1.807       .  S
S306        H317   1.402   1_556  S
C308        C309   1.403       .  A
C308        S313   1.808       .  S
C309        C310   1.408       .  A
C309        H314   1.082       .  S
C310        C311   1.419       .  A
C311        C312   1.401       .  A
C311        S315   1.802       .  S
C312        H316   1.084       .  S
S313        H318   1.407       .  S
S315        H319   1.407       .  S
C321        C322   1.402       .  A
C321        C326   1.399       .  A
C321        H331   1.084       .  S
C322        C327   1.480       .  S
C322        C323   1.410       .  A
C323        C324   1.401       .  A
C323        S328   1.805       .  S
C324        C325   1.409       .  A
C324        H329   1.084       .  S
C325        C326   1.417       .  A
C326        S330   1.803       .  S
C327        C332   1.410       .  A
C327        C336   1.399       .  A
S328        H344   1.405       .  S
S330        H341   1.407       .  S
C332        C333   1.406       .  A
C332        S337   1.805       .  S
C333        C334   1.404       .  A
C333        H338   1.082       .  S
C334        C335   1.416       .  A
C335        C336   1.396       .  A
C335        S339   1.806       .  S
C336        H340   1.084       .  S
S337        H342   1.407       .  S
S339       H1167   1.403       .  S
H343       S1163   1.402       .  S
C345        C346   1.400       .  A
C345        C350   1.397       .  A
C345        H355   1.084       .  S
C346        C351   1.485       .  S
C346        C347   1.415       .  A
C347        C348   1.406       .  A
C347        S352   1.804       .  S
C348        C349   1.407       .  A
C348        H353   1.084       .  S
C349        C350   1.419       .  A
C350        S354   1.804       .  S
C351        C356   1.410       .  A
C351        C360   1.404       .  A
S352        H368   1.405       .  S
S354        H365   1.407       .  S
C356        C357   1.405       .  A
C356        S361   1.805       .  S
C357        C358   1.403       .  A
C357        H362   1.082       .  S
C358        C359   1.411       .  A
C359        C360   1.400       .  A
C359        S363   1.800       .  S
C360        H364   1.084       .  S
S361        H366   1.407       .  S
S363        H367   1.405       .  S
C369        C370   1.403       .  A
C369        C374   1.400       .  A
C369        H379   1.084       .  S
C370        C375   1.482       .  S
C370        C371   1.410       .  A
C371        C372   1.401       .  A
C371        S376   1.803       .  S
C372        C373   1.407       .  A
C372        H377   1.084       .  S
C373        C374   1.413       .  A
C374        S378   1.799       .  S
C375        C380   1.410       .  A
C375        C384   1.401       .  A
S376        H392   1.406       .  S
S378        H389   1.407       .  S
C380        C381   1.405       .  A
C380        S385   1.805       .  S
C381        C382   1.404       .  A
C381        H386   1.081       .  S
C382        C383   1.413       .  A
C383        C384   1.397       .  A
C383        S387   1.804       .  S
C384        H388   1.084       .  S
S385        H390   1.407       .  S
S387        H391   1.407       .  S
C393        C394   1.401       .  A
C393        C398   1.399       .  A
C393        H403   1.084       .  S
C394        C399   1.482       .  S
C394        C395   1.416       .  A
C395        C396   1.401       .  A
C395        S400   1.804       .  S
C396        C397   1.402       .  A
C396        H401   1.084       .  S
C397        C398   1.416       .  A
C398        S402   1.804       .  S
C399        C404   1.411       .  A
C399        C408   1.400       .  A
S400        H416   1.405       .  S
S402        H413   1.407       .  S
C404        C405   1.407       .  A
C404        S409   1.805       .  S
C405        C406   1.404       .  A
C405        H410   1.082       .  S
C406        C407   1.412       .  A
C407        C408   1.395       .  A
C407        S411   1.804       .  S
C408        H412   1.084       .  S
S409        H414   1.407       .  S
S411        H415   1.403       .  S
C417        C418   1.403       .  A
C417        C422   1.405       .  A
C417        H427   1.083       .  S
C418        C423   1.481       .  S
C418        C419   1.409       .  A
C419        C420   1.400       .  A
C419        S424   1.805       .  S
C420        C421   1.408       .  A
C420        H425   1.084       .  S
C421        C422   1.415       .  A
C422        S426   1.808       .  S
C423        C428   1.410       .  A
C423        C432   1.400       .  A
S424        H440   1.406       .  S
S426        H437   1.407       .  S
C428        C429   1.404       .  A
C428        S433   1.805       .  S
C429        C430   1.402       .  A
C429        H434   1.082       .  S
C430        C431   1.414       .  A
C431        C432   1.398       .  A
C431        S435   1.804       .  S
C432        H436   1.084       .  S
S433        H438   1.407       .  S
S435        H439   1.401       .  S
C441        C442   1.403       .  A
C441        C446   1.401       .  A
C441        H451   1.084       .  S
C442        C447   1.480       .  S
C442        C443   1.413       .  A
C443        C444   1.399       .  A
C443        S448   1.805       .  S
C444        C445   1.401       .  A
C444        H449   1.082       .  S
C445        C446   1.412       .  A
C446       S1274   1.804       .  S
C447        C452   1.407       .  A
C447        C456   1.402       .  A
S448        H464   1.402       .  S
S450       C1270   1.805       .  S
S450        H461   1.402       .  S
C452        C453   1.403       .  A
C452        S457   1.808       .  S
C453        C454   1.408       .  A
C453        H458   1.082       .  S
C454        C455   1.417       .  A
C455        C456   1.402       .  A
C455        S459   1.802       .  S
C456        H460   1.084       .  S
S457        H462   1.407       .  S
S459        H463   1.407       .  S
C465        C466   1.400       .  A
C465        C470   1.395       .  A
C465        H475   1.084       .  S
C466        C471   1.485       .  S
C466        C467   1.415       .  A
C467        C468   1.403       .  A
C467        S472   1.804       .  S
C468        C469   1.404       .  A
C468        H473   1.083       .  S
C469        C470   1.416       .  A
C470       S1298   1.806       .  S
C471        C476   1.413       .  A
C471        C480   1.403       .  A
S472        H488   1.406       .  S
S474       C1294   1.806       .  S
S474        H485   1.404       .  S
C476        C477   1.403       .  A
C476        S481   1.808       .  S
C477        C478   1.405       .  A
C477        H482   1.083       .  S
C478        C479   1.416       .  A
C479        C480   1.400       .  A
C479        S483   1.803       .  S
C480        H484   1.084       .  S
S481        H486   1.407       .  S
S483        H487   1.407       .  S
C489        C490   1.402       .  A
C489        C494   1.395       .  A
C489        H499   1.084       .  S
C490        C495   1.485       .  S
C490        C491   1.417       .  A
C491        C492   1.402       .  A
C491        S496   1.804       .  S
C492        C493   1.402       .  A
C492        H497   1.084       .  S
C493        C494   1.411       .  A
C494        S498   1.804       .  S
C495        C500   1.411       .  A
C495        C504   1.402       .  A
S496        H512   1.406       .  S
S498        H509   1.407       .  S
C500        C501   1.402       .  A
C500        S505   1.809       .  S
C501        C502   1.410       .  A
C501        H506   1.082       .  S
C502        C503   1.417       .  A
C503        C504   1.400       .  A
C503        S507   1.798       .  S
C504        H508   1.084       .  S
S505        H510   1.407       .  S
S507        H511   1.407       .  S
C513        C514   1.404       .  A
C513        C518   1.403       .  A
C513        H523   1.084       .  S
C514        C519   1.490       .  S
C514        C515   1.415       .  A
C515        C516   1.403       .  A
C515        S520   1.804       .  S
C516        C517   1.404       .  A
C516        H521   1.083       .  S
C517        C518   1.413       .  A
C518        S522   1.798       .  S
C519        C524   1.409       .  A
C519        C528   1.401       .  A
S520        H536   1.405       .  S
S522        H533   1.407       .  S
C524        C525   1.408       .  A
C524        S529   1.806       .  S
C525        C526   1.411       .  A
C525        H530   1.082       .  S
C526        C527   1.422       .  A
C527        C528   1.402       .  A
C527        S531   1.802       .  S
C528        H532   1.084       .  S
S529        H534   1.407       .  S
S531        H535   1.407       .  S
C537        C538   1.399       .  A
C537        C542   1.395       .  A
C537        H547   1.084       .  S
C538        C543   1.481       .  S
C538        C539   1.413   1_565  A
C539        C540   1.405   1_545  A
C539        S544   1.803       .  S
C540        C541   1.405       .  A
C540        H545   1.084   1_565  S
C541        C542   1.416       .  A
C542       S1370   1.807       .  S
C543        C548   1.411   1_565  A
C543        C552   1.399       .  A
S544        H560   1.405       .  S
S546       C1366   1.808       .  S
S546        H557   1.401       .  S
C548        C549   1.406       .  A
C548        S553   1.806       .  S
C549        C550   1.404   1_545  A
C549        H554   1.083       .  S
C550        C551   1.416       .  A
C551        C552   1.398       .  A
C551        S555   1.804       .  S
C552        H556   1.084       .  S
S553        H558   1.407       .  S
S555        H559   1.407       .  S
C561        C562   1.400       .  A
C561        C566   1.399       .  A
C561        H571   1.084       .  S
C562        C567   1.481       .  S
C562        C563   1.413       .  A
C563        C564   1.402       .  A
C563        S568   1.803   1_565  S
C564        C565   1.403       .  A
C564        H569   1.083   1_565  S
C565        C566   1.416       .  A
C566       S1394   1.805       .  S
C567        C572   1.406       .  A
C567        C576   1.401       .  A
S568        H584   1.405       .  S
S570       C1390   1.804       .  S
S570        H581   1.403   1_556  S
C572        C573   1.404       .  A
C572        S577   1.806       .  S
C573        C574   1.410       .  A
C573        H578   1.082       .  S
C574        C575   1.418       .  A
C575        C576   1.400       .  A
C575        S579   1.803       .  S
C576        H580   1.084       .  S
S577        H582   1.407       .  S
S579        H583   1.408       .  S
C585        C586   1.404       .  A
C585        C590   1.407       .  A
C585        H595   1.083       .  S
C586        C591   1.486   1_565  S
C586        C587   1.412   1_565  A
C587        C588   1.400       .  A
C587        S592   1.803       .  S
C588        C589   1.402   1_545  A
C588        H593   1.082       .  S
C589        C590   1.411       .  A
C590        S594   1.802       .  S
C591        C596   1.411       .  A
C591        C600   1.400       .  A
S592        H608   1.406       .  S
S594        H605   1.407       .  S
C596        C597   1.410       .  A
C596        S601   1.805       .  S
C597        C598   1.407       .  A
C597        H602   1.083       .  S
C598        C599   1.417       .  A
C599        C600   1.397       .  A
C599        S603   1.803       .  S
C600        H604   1.084   1_545  S
S601        H606   1.407       .  S
S603        H607   1.407   1_545  S
C609        C610   1.406   1_545  A
C609        C614   1.403       .  A
C609        H619   1.084       .  S
C610        C615   1.487       .  S
C610        C611   1.413       .  A
C611        C612   1.399       .  A
C611        S616   1.805       .  S
C612        C613   1.405   1_565  A
C612       H1441   1.084       .  S
C613        C614   1.411       .  A
C614        S618   1.797       .  S
C615        C620   1.411       .  A
C615        C624   1.402   1_565  A
S616        H632   1.405       .  S
H617       C1436   1.084       .  S
S618        H629   1.406       .  S
C620        C621   1.408       .  A
C620        S625   1.805       .  S
C621        C622   1.406       .  A
C621        H626   1.083       .  S
C622        C623   1.416   1_565  A
C623        C624   1.398       .  A
C623        S627   1.806       .  S
C624        H628   1.084       .  S
S625        H630   1.407       .  S
S627        H631   1.407       .  S
C633        C634   1.399       .  A
C633        C638   1.397       .  A
C633        H643   1.084       .  S
C634        C639   1.485       .  S
C634        C635   1.415       .  A
C635        C636   1.404       .  A
C635        S640   1.803   1_545  S
C636        C637   1.404       .  A
C636        H641   1.083   1_545  S
C637        C638   1.419       .  A
C638        S642   1.807       .  S
C639        C644   1.408       .  A
C639        C648   1.402       .  A
S640        H656   1.406   1_565  S
S642        H653   1.403       .  S
C644        C645   1.401       .  A
C644        S649   1.809   1_545  S
C645        C646   1.410       .  A
C645        H650   1.082       .  S
C646        C647   1.421       .  A
C647        C648   1.403       .  A
C647        S651   1.802       .  S
C648        H652   1.084       .  S
S649        H654   1.407       .  S
S651        H655   1.408       .  S
C657        C658   1.401       .  A
C657        C662   1.400       .  A
C657        H667   1.084       .  S
C658        C663   1.487   1_545  S
C658        C659   1.413   1_545  A
C659        C660   1.404       .  A
C659        S664   1.804       .  S
C660        C661   1.406   1_565  A
C660        H665   1.083       .  S
C661        C662   1.417       .  A
C662       S1490   1.800       .  S
C663        C668   1.408       .  A
C663        C672   1.401   1_565  A
S664        H680   1.405       .  S
S666       C1486   1.800       .  S
S666        H677   1.401       .  S
C668        C669   1.405       .  A
C668        S673   1.807       .  S
C669        C670   1.412       .  A
C669        H674   1.082       .  S
C670        C671   1.423   1_565  A
C671        C672   1.403       .  A
C671        S675   1.802       .  S
C672        H676   1.084       .  S
S673        H678   1.407       .  S
S675        H679   1.408       .  S
C681        C682   1.403       .  A
C681        C686   1.404       .  A
C681        H691   1.083       .  S
C682        C687   1.477       .  S
C682        C683   1.408       .  A
C683        C684   1.398       .  A
C683        S688   1.804       .  S
C684        C685   1.408       .  A
C684        H689   1.084       .  S
C685        C686   1.413       .  A
C686        S690   1.808       .  S
C687        C692   1.411       .  A
C687        C696   1.399       .  A
S688        H704   1.405       .  S
S690        H701   1.407       .  S
C692        C693   1.404       .  A
C692        S697   1.805   1_655  S
C693        C694   1.403       .  A
C693        H698   1.082   1_655  S
C694        C695   1.413       .  A
C695        C696   1.396       .  A
C695        S699   1.804       .  S
C696        H700   1.084       .  S
S697        H702   1.407       .  S
S699        H703   1.407       .  S
C705        C706   1.403       .  A
C705        C710   1.405       .  A
C705        H715   1.084       .  S
C706        C711   1.486       .  S
C706        C707   1.413       .  A
C707        C708   1.401       .  A
C707        S712   1.807       .  S
C708        C709   1.408       .  A
C708        H713   1.084       .  S
C709        C710   1.418       .  A
C710        S714   1.801       .  S
C711        C716   1.410   1_455  A
C711        C720   1.402       .  A
S712        H728   1.405       .  S
S714        H725   1.407       .  S
C716        C717   1.405       .  A
C716        S721   1.806       .  S
C717        C718   1.404   1_655  A
C717        H722   1.082       .  S
C718        C719   1.412       .  A
C719        C720   1.401       .  A
C719        S723   1.797       .  S
C720        H724   1.084       .  S
S721        H726   1.407       .  S
S723        H727   1.406       .  S
C729        C730   1.399       .  A
C729        C734   1.395       .  A
C729        H739   1.084       .  S
C730        C735   1.483       .  S
C730        C731   1.413   1_455  A
C731        C732   1.404       .  A
C731        S736   1.803       .  S
C732        C733   1.404   1_655  A
C732        H737   1.084       .  S
C733        C734   1.417       .  A
C734        S738   1.806       .  S
C735        C740   1.409       .  A
C735        C744   1.402   1_455  A
S736        H752   1.406       .  S
S738        H749   1.402       .  S
C740        C741   1.405       .  A
C740        S745   1.806       .  S
C741        C742   1.406       .  A
C741        H746   1.083       .  S
C742        C743   1.415   1_455  A
C743        C744   1.399       .  A
C743        S747   1.802       .  S
C744        H748   1.084       .  S
S745        H750   1.407       .  S
S747        H751   1.407       .  S
C753        C754   1.402   1_655  A
C753        C758   1.399       .  A
C753        H763   1.084       .  S
C754        C759   1.480       .  S
C754        C755   1.413       .  A
C755        C756   1.400       .  A
C755        S760   1.805       .  S
C756        C757   1.403       .  A
C756        H761   1.084       .  S
C757        C758   1.413   1_455  A
C758        S762   1.808       .  S
C759        C764   1.407       .  A
C759        C768   1.403       .  A
S760        H776   1.405       .  S
S762        H773   1.402       .  S
C764        C765   1.403       .  A
C764        S769   1.807       .  S
C765        C766   1.408       .  A
C765        H770   1.083       .  S
C766        C767   1.413       .  A
C767        C768   1.399       .  A
C767        S771   1.803       .  S
C768        H772   1.084       .  S
S769        H774   1.407       .  S
S771        H775   1.407       .  S
C777        C778   1.402       .  A
C777        C782   1.404       .  A
C777        H787   1.084       .  S
C778        C783   1.485       .  S
C778        C779   1.413       .  A
C779        C780   1.401       .  A
C779        S784   1.806       .  S
C780        C781   1.407       .  A
C780        H785   1.084       .  S
C781        C782   1.418       .  A
C782        S786   1.802       .  S
C783        C788   1.410       .  A
C783        C792   1.403   1_655  A
S784        H800   1.406   1_655  S
S786        H797   1.407       .  S
C788        C789   1.403       .  A
C788        S793   1.806       .  S
C789        C790   1.402   1_655  A
C789        H794   1.081       .  S
C790        C791   1.412       .  A
C791        C792   1.402       .  A
C791        S795   1.798       .  S
C792        H796   1.084       .  S
S793        H798   1.407       .  S
S795        H799   1.405       .  S
C801        C802   1.400       .  A
C801        C806   1.395       .  A
C801        H811   1.084       .  S
C802        C807   1.478       .  S
C802        C803   1.411   1_455  A
C803        C804   1.402       .  A
C803        S808   1.802       .  S
C804        C805   1.404   1_655  A
C804        H809   1.084       .  S
C805        C806   1.415       .  A
C806       S1634   1.807       .  S
C807        C812   1.406       .  A
C807        C816   1.403   1_455  A
S808        H824   1.406       .  S
S810       C1630   1.807       .  S
S810        H821   1.401       .  S
C812        C813   1.401       .  A
C812        S817   1.806       .  S
C813        C814   1.406   1_455  A
C813        H818   1.083       .  S
C814        C815   1.412       .  A
C815        C816   1.401       .  A
C815        S819   1.797       .  S
C816        H820   1.084       .  S
S817        H822   1.407       .  S
S819        H823   1.404       .  S
N825        C826   1.357       .  A
N825       C1614   1.441       .  S
C826       C1629   1.477       .  S
C827        C828   1.373       .  A
C827        H830   1.082       .  S
C828        C829   1.380       .  A
C828        H831   1.082       .  S
C829       C1581   1.471       .  S
N832        C833   1.360       .  A
N832       C1542   1.444       .  S
C833       C1557   1.478   1_655  S
C834        C835   1.370   1_455  A
C834        H837   1.082       .  S
C835        C836   1.380       .  A
C835        H838   1.082       .  S
C836       C1518   1.477       .  S
N839        C840   1.364       .  A
N839       C1485   1.449       .  S
C840       C1437   1.485       .  S
C841        C842   1.366       .  A
C841        H844   1.082       .  S
C842        C843   1.382       .  A
C842        H845   1.082       .  S
C843       C1461   1.483       .  S
N846        C847   1.359       .  A
N846       C1413   1.442       .  S
C847       C1365   1.480       .  S
C848        C849   1.371       .  A
C848        H851   1.082       .  S
C849        C850   1.379       .  A
C849        H852   1.082       .  S
C850       C1389   1.478       .  S
N853        C854   1.361       .  A
N853       C1341   1.444       .  S
C854       C1293   1.484       .  S
C855        C856   1.367       .  A
C855        H858   1.082       .  S
C856        C857   1.380       .  A
C856        H859   1.082       .  S
C857       C1317   1.478       .  S
N860        C861   1.356       .  A
N860       C1269   1.436       .  S
C861       C1230   1.478       .  S
C862        C863   1.374       .  A
C862        H865   1.082       .  S
C863        C864   1.380       .  A
C863        H866   1.082       .  S
C864       C1254   1.475       .  S
N867        C868   1.356       .  A
N867       C1182   1.441       .  S
C868       C1206   1.479       .  S
C869        C870   1.371       .  A
C869        H872   1.082       .  S
C870        C871   1.382       .  A
C870        H873   1.082       .  S
C871       C1158   1.481       .  S
N874        C875   1.360       .  A
N874       C1110   1.444       .  S
C875       C1125   1.479       .  S
C876        C877   1.370       .  A
C876        H879   1.082       .  S
C877        C878   1.381       .  A
C877        H880   1.082       .  S
C878       C1077   1.480       .  S
O881       Mg883   2.128       .  S
O881       Mg889   2.135       .  S
O881        C916   1.237       .  S
C882        H921   1.081       .  S
C882        O895   1.238       .  S
C882        O919   1.272       .  A
Mg883       O912   2.140       .  S
Mg883       O927   2.298       .  S
Mg883       O923   2.253       .  S
Mg883       O894   2.295       .  S
O884       Mg926   2.141       .  S
O884       Mg909   2.131       .  S
O884        C905   1.239       .  S
O885        C916   1.271       .  A
O885       Mg909   2.302       .  S
C886       C1245   1.482       .  S
C886        O888   1.274       .  A
C886        O900   1.276       .  A
O887        C915   1.273       .  A
O887       Mg889   2.304       .  S
O888       Mg920   2.269       .  S
Mg889       O895   2.142       .  S
Mg889       O903   2.283       .  S
Mg889       O891   2.317       .  S
C890       C1134   1.487       .  S
C890        O928   1.272       .  A
C890        O896   1.276       .  A
O891        C898   1.277       .  A
H892        C905   1.081       .  S
C893        H918   1.081       .  S
C893        O907   1.239       .  S
C893        O908   1.272       .  A
O894        C917   1.271       .  A
O895       Mg909   2.144       .  S
O896       Mg926   2.315       .  S
C897       C1350   1.495       .  S
C897        O910   1.271       .  A
C897        O902   1.278       .  A
C898       C1326   1.488       .  S
C898        O925   1.273       .  A
Mg899       O906   2.126       .  S
Mg899       O907   2.136       .  S
Mg899       O900   2.308       .  S
Mg899       O901   2.302       .  S
Mg899       O928   2.258       .  S
O901        C905   1.273       .  A
O902       Mg909   2.323       .  S
O903        C922   1.274       .  A
O904        C924   1.278       .  A
O904       Mg920   2.326       .  S
O906       Mg920   2.138       .  S
O906        C917   1.238       .  S
O907       Mg926   2.127       .  S
O908       Mg920   2.303       .  S
Mg909       O925   2.256       .  S
O910       Mg926   2.257       .  S
H911        C916   1.081       .  S
O912       Mg920   2.134       .  S
O912        C915   1.239       .  S
H913        C915   1.081       .  S
H914        C917   1.081       .  S
O919       Mg926   2.302       .  S
C922       C1197   1.482       .  S
C922        O927   1.274       .  A
O923        C924   1.272       .  A
C924       C1278   1.483       .  S
O929       Mg931   2.133       .  S
O929       Mg937   2.136       .  S
O929        C964   1.238       .  S
C930        H969   1.081       .  S
C930        O943   1.238       .  S
C930        O967   1.271       .  A
Mg931       O960   2.137       .  S
Mg931       O975   2.330       .  S
Mg931       O971   2.267       .  S
Mg931       O942   2.307   1_545  S
O932       Mg974   2.148       .  S
O932       Mg957   2.126       .  S
O932        C953   1.238       .  S
O933        C964   1.272   1_565  A
O933       Mg957   2.302       .  S
C934       C1398   1.489       .  S
C934        O936   1.274       .  A
C934        O948   1.277       .  A
O935        C963   1.273       .  A
O935       Mg937   2.304       .  S
O936       Mg968   2.271   1_565  S
Mg937       O943   2.128       .  S
Mg937       O951   2.256       .  S
Mg937       O939   2.322       .  S
C938       C1302   1.484       .  S
C938        O976   1.275       .  A
C938        O944   1.275       .  A
O939        C946   1.276       .  A
H940        C953   1.081       .  S
C941        H966   1.081       .  S
C941        O955   1.240   1_545  S
C941        O956   1.274       .  A
O942        C965   1.273       .  A
O943       Mg957   2.138   1_545  S
O944       Mg974   2.301       .  S
C945       C1494   1.498       .  S
C945        O958   1.275       .  A
C945        O950   1.274       .  A
C946       C1470   1.496       .  S
C946        O973   1.273       .  A
Mg947       O954   2.143       .  S
Mg947       O955   2.145       .  S
Mg947       O948   2.317       .  S
Mg947       O949   2.298       .  S
Mg947       O976   2.281       .  S
O949        C953   1.272       .  A
O950       Mg957   2.306       .  S
O951        C970   1.272       .  A
O952        C972   1.280       .  A
O952       Mg968   2.341       .  S
O954       Mg968   2.139   1_565  S
O954        C965   1.238       .  S
O955       Mg974   2.142       .  S
O956       Mg968   2.308       .  S
Mg957       O973   2.258   1_565  S
O958       Mg974   2.279       .  S
H959        C964   1.081   1_565  S
O960       Mg968   2.141       .  S
O960        C963   1.240       .  S
H961        C963   1.081       .  S
H962        C965   1.081       .  S
O967       Mg974   2.293   1_545  S
C970       C1221   1.481       .  S
C970        O975   1.278       .  A
O971        C972   1.273       .  A
C972       C1422   1.491       .  S
O977       Mg979   2.139   1_565  S
O977       Mg985   2.139       .  S
O977       C1012   1.240   1_455  S
C978       H1017   1.081       .  S
C978        O991   1.237       .  S
C978       O1015   1.270       .  A
Mg979      O1008   2.142       .  S
Mg979      O1023   2.338       .  S
Mg979      O1019   2.268       .  S
Mg979       O990   2.305   1_455  S
O980      Mg1022   2.144       .  S
O980      Mg1005   2.135       .  S
O980       C1001   1.238       .  S
O981       C1012   1.275       .  A
O981      Mg1005   2.309       .  S
C982       C1509   1.482       .  S
C982        O984   1.273       .  A
C982        O996   1.274       .  A
O983       C1011   1.272   1_565  A
O983       Mg985   2.297       .  S
O984      Mg1016   2.273   1_655  S
Mg985       O991   2.135       .  S
Mg985       O999   2.255       .  S
Mg985       O987   2.297       .  S
C986       C1446   1.485       .  S
C986       O1024   1.271   1_565  A
C986        O992   1.279       .  A
O987        C994   1.274       .  A
H988       C1001   1.081       .  S
C989       H1014   1.081       .  S
C989       O1003   1.240   1_455  S
C989       O1004   1.275       .  A
O990       C1013   1.272       .  A
O991      Mg1005   2.136   1_455  S
O992      Mg1022   2.341       .  S
C993       C1605   1.489       .  S
C993       O1006   1.276       .  A
C993        O998   1.279       .  A
C994       C1590   1.477       .  S
C994       O1021   1.273       .  A
Mg995      O1002   2.140       .  S
Mg995      O1003   2.137       .  S
Mg995       O996   2.300       .  S
Mg995       O997   2.298   1_545  S
Mg995      O1024   2.249       .  S
O997       C1001   1.272       .  A
O998      Mg1005   2.335       .  S
O999       C1018   1.271       .  A
O1000      C1020   1.280       .  A
O1000     Mg1016   2.341       .  S
O1002     Mg1016   2.137   1_655  S
O1002      C1013   1.237       .  S
O1003     Mg1022   2.144   1_545  S
O1004     Mg1016   2.312       .  S
Mg1005     O1021   2.271   1_655  S
O1006     Mg1022   2.270       .  S
H1007      C1012   1.081       .  S
O1008     Mg1016   2.134       .  S
O1008      C1011   1.239       .  S
H1009      C1011   1.081       .  S
H1010      C1013   1.081       .  S
O1015     Mg1022   2.299   1_455  S
C1018      C1374   1.482       .  S
C1018      O1023   1.278   1_565  A
O1019      C1020   1.275       .  A
C1020      C1533   1.495       .  S
O1025     Mg1027   2.131   1_655  S
O1025     Mg1033   2.137       .  S
O1025      C1060   1.239       .  S
C1026      H1065   1.081       .  S
C1026      O1039   1.237       .  S
C1026      O1063   1.270       .  A
Mg1027     O1056   2.134       .  S
Mg1027     O1071   2.320       .  S
Mg1027     O1067   2.264       .  S
Mg1027     O1038   2.305       .  S
O1028     Mg1070   2.148       .  S
O1028     Mg1053   2.131       .  S
O1028      C1049   1.238       .  S
O1029      C1060   1.273       .  A
O1029     Mg1053   2.302       .  S
C1030      C1149   1.485       .  S
C1030      O1032   1.273       .  A
C1030      O1044   1.275       .  A
O1031      C1059   1.273       .  A
O1031     Mg1033   2.301   1_455  S
O1032     Mg1064   2.268       .  S
Mg1033     O1039   2.124       .  S
Mg1033     O1047   2.247       .  S
Mg1033     O1035   2.287       .  S
C1034      C1638   1.485       .  S
C1034      O1072   1.272       .  A
C1034      O1040   1.277   1_455  A
O1035      C1042   1.273       .  A
H1036      C1049   1.081       .  S
C1037      H1062   1.081       .  S
C1037      O1051   1.240       .  S
C1037      O1052   1.275       .  A
O1038      C1061   1.272       .  A
O1039     Mg1053   2.143       .  S
O1040     Mg1070   2.329       .  S
C1041      C1101   1.501       .  S
C1041      O1054   1.276       .  A
C1041      O1046   1.281       .  A
C1042      C1086   1.484       .  S
C1042      O1069   1.276       .  A
Mg1043     O1050   2.134       .  S
Mg1043     O1051   2.143       .  S
Mg1043     O1044   2.302       .  S
Mg1043     O1045   2.295       .  S
Mg1043     O1072   2.251       .  S
O1045      C1049   1.272   1_455  A
O1046     Mg1053   2.329       .  S
O1047      C1066   1.270       .  A
O1048      C1068   1.280       .  A
O1048     Mg1064   2.342       .  S
O1050     Mg1064   2.137       .  S
O1050      C1061   1.238       .  S
O1051     Mg1070   2.148   1_455  S
O1052     Mg1064   2.312       .  S
Mg1053     O1069   2.289       .  S
O1054     Mg1070   2.281       .  S
H1055      C1060   1.081       .  S
O1056     Mg1064   2.128       .  S
O1056      C1059   1.240       .  S
H1057      C1059   1.081       .  S
H1058      C1061   1.081       .  S
O1063     Mg1070   2.291       .  S
C1066      C1566   1.482   1_655  S
C1066      O1071   1.277   1_655  A
O1067      C1068   1.273       .  A
C1068      C1173   1.490       .  S
C1073      C1074   1.400       .  A
C1073      C1078   1.398       .  A
C1073      H1083   1.084       .  S
C1074      C1079   1.479       .  S
C1074      C1075   1.413       .  A
C1075      C1076   1.401       .  A
C1075      S1080   1.804       .  S
C1076      C1077   1.403       .  A
C1076      H1081   1.082       .  S
C1077      C1078   1.413       .  A
C1078      S1082   1.803       .  S
C1079      C1084   1.410       .  A
C1079      C1088   1.397       .  A
S1080      H1096   1.403       .  S
S1082      H1093   1.407       .  S
C1084      C1085   1.405       .  A
C1084      S1089   1.806       .  S
C1085      C1086   1.405       .  A
C1085      H1090   1.083       .  S
C1086      C1087   1.420       .  A
C1087      C1088   1.398       .  A
C1087      S1091   1.801       .  S
C1088      H1092   1.084       .  S
S1089      H1094   1.407       .  S
S1091      H1095   1.405       .  S
C1097      C1098   1.400       .  A
C1097      C1102   1.401       .  A
C1097      H1107   1.084       .  S
C1098      C1103   1.488       .  S
C1098      C1099   1.412       .  A
C1099      C1100   1.403       .  A
C1099      S1104   1.804       .  S
C1100      C1101   1.411       .  A
C1100      H1105   1.083       .  S
C1101      C1102   1.422       .  A
C1102      S1106   1.799       .  S
C1103      C1108   1.411       .  A
C1103      C1112   1.405       .  A
S1104      H1120   1.406       .  S
S1106      H1117   1.408       .  S
C1108      C1109   1.403       .  A
C1108      S1113   1.807       .  S
C1109      C1110   1.403       .  A
C1109      H1114   1.082       .  S
C1110      C1111   1.412       .  A
C1111      C1112   1.403       .  A
C1111      S1115   1.798       .  S
C1112      H1116   1.084       .  S
S1113      H1118   1.407       .  S
S1115      H1119   1.405       .  S
C1121      C1122   1.397       .  A
C1121      C1126   1.394       .  A
C1121      H1131   1.085       .  S
C1122      C1127   1.480       .  S
C1122      C1123   1.414       .  A
C1123      C1124   1.404       .  A
C1123      S1128   1.803       .  S
C1124      C1125   1.404       .  A
C1124      H1129   1.084       .  S
C1125      C1126   1.417       .  A
C1127      C1132   1.410       .  A
C1127      C1136   1.400       .  A
S1128      H1144   1.406       .  S
S1130      H1141   1.402       .  S
C1132      C1133   1.403       .  A
C1132      S1137   1.808       .  S
C1133      C1134   1.407       .  A
C1133      H1138   1.082       .  S
C1134      C1135   1.419       .  A
C1135      C1136   1.400       .  A
C1135      S1139   1.802       .  S
C1136      H1140   1.084       .  S
S1137      H1142   1.407       .  S
S1139      H1143   1.407       .  S
C1145      C1146   1.404       .  A
C1145      C1150   1.399       .  A
C1145      H1155   1.084       .  S
C1146      C1151   1.481       .  S
C1146      C1147   1.411       .  A
C1147      C1148   1.401       .  A
C1147      S1152   1.805       .  S
C1148      C1149   1.409       .  A
C1148      H1153   1.084       .  S
C1149      C1150   1.415       .  A
C1150      S1154   1.803       .  S
C1151      C1156   1.411       .  A
C1151      C1160   1.399       .  A
S1152      H1168   1.405       .  S
S1154      H1165   1.407       .  S
C1156      C1157   1.407       .  A
C1156      S1161   1.805       .  S
C1157      C1158   1.405       .  A
C1157      H1162   1.082       .  S
C1158      C1159   1.416       .  A
C1159      C1160   1.395       .  A
C1159      S1163   1.806       .  S
C1160      H1164   1.084       .  S
S1161      H1166   1.407       .  S
C1169      C1170   1.399       .  A
C1169      C1174   1.399       .  A
C1169      H1179   1.084       .  S
C1170      C1175   1.485       .  S
C1170      C1171   1.414       .  A
C1171      C1172   1.406       .  A
C1171      S1176   1.805       .  S
C1172      C1173   1.407       .  A
C1172      H1177   1.084       .  S
C1173      C1174   1.420       .  A
C1174      S1178   1.803       .  S
C1175      C1180   1.410       .  A
C1175      C1184   1.404       .  A
S1176      H1192   1.405       .  S
S1178      H1189   1.407       .  S
C1180      C1181   1.405       .  A
C1180      S1185   1.805       .  S
C1181      C1182   1.404       .  A
C1181      H1186   1.082       .  S
C1182      C1183   1.411       .  A
C1183      C1184   1.400       .  A
C1183      S1187   1.800       .  S
C1184      H1188   1.084       .  S
S1185      H1190   1.407       .  S
S1187      H1191   1.405       .  S
C1193      C1194   1.403       .  A
C1193      C1198   1.399       .  A
C1193      H1203   1.084       .  S
C1194      C1199   1.482       .  S
C1194      C1195   1.411       .  A
C1195      C1196   1.401       .  A
C1195      S1200   1.804       .  S
C1196      C1197   1.407       .  A
C1196      H1201   1.084       .  S
C1197      C1198   1.413       .  A
C1198      S1202   1.800       .  S
C1199      C1204   1.411       .  A
C1199      C1208   1.401       .  A
S1200      H1216   1.406       .  S
S1202      H1213   1.407       .  S
C1204      C1205   1.405       .  A
C1204      S1209   1.805       .  S
C1205      C1206   1.403       .  A
C1205      H1210   1.082       .  S
C1206      C1207   1.412       .  A
C1207      C1208   1.396       .  A
C1207      S1211   1.804       .  S
C1208      H1212   1.084       .  S
S1209      H1214   1.407       .  S
S1211      H1215   1.407       .  S
C1217      C1218   1.402       .  A
C1217      C1222   1.400       .  A
C1217      H1227   1.084       .  S
C1218      C1223   1.485       .  S
C1218      C1219   1.416       .  A
C1219      C1220   1.402       .  A
C1219      S1224   1.804       .  S
C1220      C1221   1.402       .  A
C1220      H1225   1.084       .  S
C1221      C1222   1.416       .  A
C1222      S1226   1.804       .  S
C1223      C1228   1.412       .  A
C1223      C1232   1.400       .  A
S1224      H1240   1.405       .  S
S1226      H1237   1.407       .  S
C1228      C1229   1.408       .  A
C1228      S1233   1.805       .  S
C1229      C1230   1.404       .  A
C1229      H1234   1.082       .  S
C1230      C1231   1.412       .  A
C1231      C1232   1.396       .  A
C1231      S1235   1.804       .  S
C1232      H1236   1.084       .  S
S1233      H1238   1.407       .  S
S1235      H1239   1.403       .  S
C1241      C1242   1.403       .  A
C1241      C1246   1.403       .  A
C1241      H1251   1.083       .  S
C1242      C1247   1.479       .  S
C1242      C1243   1.410       .  A
C1243      C1244   1.400       .  A
C1243      S1248   1.805       .  S
C1244      C1245   1.408       .  A
C1244      H1249   1.084       .  S
C1245      C1246   1.413       .  A
C1246      S1250   1.808       .  S
C1247      C1252   1.409       .  A
C1247      C1256   1.400       .  A
S1248      H1264   1.406       .  S
S1250      H1261   1.407       .  S
C1252      C1253   1.403       .  A
C1252      S1257   1.806       .  S
C1253      C1254   1.402       .  A
C1253      H1258   1.082       .  S
C1254      C1255   1.415       .  A
C1255      C1256   1.398       .  A
C1255      S1259   1.805       .  S
C1256      H1260   1.084       .  S
S1257      H1262   1.407       .  S
S1259      H1263   1.398   1_556  S
C1265      C1266   1.403       .  A
C1265      C1270   1.402       .  A
C1265      H1275   1.084       .  S
C1266      C1271   1.480       .  S
C1266      C1267   1.412       .  A
C1267      C1268   1.399       .  A
C1267      S1272   1.805       .  S
C1268      C1269   1.401       .  A
C1268      H1273   1.082       .  S
C1269      C1270   1.413       .  A
C1271      C1276   1.408       .  A
C1271      C1280   1.403       .  A
S1272      H1288   1.404       .  S
S1274      H1285   1.403       .  S
C1276      C1277   1.402       .  A
C1276      S1281   1.808       .  S
C1277      C1278   1.407       .  A
C1277      H1282   1.083       .  S
C1278      C1279   1.415       .  A
C1279      C1280   1.403       .  A
C1279      S1283   1.802       .  S
C1280      H1284   1.084       .  S
S1281      H1286   1.407       .  S
S1283      H1287   1.407       .  S
C1289      C1290   1.400       .  A
C1289      C1294   1.397       .  A
C1289      H1299   1.084       .  S
C1290      C1295   1.485       .  S
C1290      C1291   1.414       .  A
C1291      C1292   1.402       .  A
C1291      S1296   1.803       .  S
C1292      C1293   1.404       .  A
C1292      H1297   1.083       .  S
C1293      C1294   1.417       .  A
C1295      C1300   1.413       .  A
C1295      C1304   1.401       .  A
S1296      H1312   1.406       .  S
S1298      H1309   1.403       .  S
C1300      C1301   1.404       .  A
C1300      S1305   1.808       .  S
C1301      C1302   1.404       .  A
C1301      H1306   1.083       .  S
C1302      C1303   1.418       .  A
C1303      C1304   1.400       .  A
C1303      S1307   1.803       .  S
C1304      H1308   1.084       .  S
S1305      H1310   1.406       .  S
S1307      H1311   1.407       .  S
C1313      C1314   1.401       .  A
C1313      C1318   1.394       .  A
C1313      H1323   1.084       .  S
C1314      C1319   1.485       .  S
C1314      C1315   1.417       .  A
C1315      C1316   1.402       .  A
C1315      S1320   1.804       .  S
C1316      C1317   1.402       .  A
C1316      H1321   1.083       .  S
C1317      C1318   1.412       .  A
C1318      S1322   1.804       .  S
C1319      C1324   1.412       .  A
C1319      C1328   1.403       .  A
S1320      H1336   1.406       .  S
S1322      H1333   1.407       .  S
C1324      C1325   1.402       .  A
C1324      S1329   1.809       .  S
C1325      C1326   1.408       .  A
C1325      H1330   1.082       .  S
C1326      C1327   1.415       .  A
C1327      C1328   1.399       .  A
C1327      S1331   1.799       .  S
C1328      H1332   1.084       .  S
S1329      H1334   1.407       .  S
S1331      H1335   1.407       .  S
C1337      C1338   1.403       .  A
C1337      C1342   1.400       .  A
C1337      H1347   1.084       .  S
C1338      C1343   1.484       .  S
C1338      C1339   1.414       .  A
C1339      C1340   1.400       .  A
C1339      S1344   1.804       .  S
C1340      C1341   1.404       .  A
C1340      H1345   1.083       .  S
C1341      C1342   1.412       .  A
C1342      S1346   1.799       .  S
C1343      C1348   1.408       .  A
C1343      C1352   1.400       .  A
S1344      H1360   1.405       .  S
S1346      H1357   1.406       .  S
C1348      C1349   1.406       .  A
C1348      S1353   1.806       .  S
C1349      C1350   1.411       .  A
C1349      H1354   1.082       .  S
C1350      C1351   1.421       .  A
C1351      C1352   1.399       .  A
C1351      S1355   1.803       .  S
C1352      H1356   1.084       .  S
S1353      H1358   1.407       .  S
S1355      H1359   1.407       .  S
C1361      C1362   1.400       .  A
C1361      C1366   1.397       .  A
C1361      H1371   1.084       .  S
C1362      C1367   1.485       .  S
C1362      C1363   1.414   1_565  A
C1363      C1364   1.405   1_545  A
C1363      S1368   1.803       .  S
C1364      C1365   1.404       .  A
C1364      H1369   1.084   1_565  S
C1365      C1366   1.416       .  A
C1367      C1372   1.413   1_565  A
C1367      C1376   1.400       .  A
S1368      H1384   1.405       .  S
S1370      H1381   1.404       .  S
C1372      C1373   1.408       .  A
C1372      S1377   1.806       .  S
C1373      C1374   1.404   1_545  A
C1373      H1378   1.082       .  S
C1374      C1375   1.416       .  A
C1375      C1376   1.399       .  A
C1375      S1379   1.804       .  S
C1376      H1380   1.084       .  S
S1377      H1382   1.407       .  S
S1379      H1383   1.407       .  S
C1385      C1386   1.402       .  A
C1385      C1390   1.400       .  A
C1385      H1395   1.084       .  S
C1386      C1391   1.484       .  S
C1386      C1387   1.413       .  A
C1387      C1388   1.401       .  A
C1387      S1392   1.803   1_565  S
C1388      C1389   1.402       .  A
C1388      H1393   1.083   1_565  S
C1389      C1390   1.414       .  A
C1391      C1396   1.407       .  A
C1391      C1400   1.402       .  A
S1392      H1408   1.406       .  S
S1394      H1405   1.403       .  S
C1396      C1397   1.405       .  A
C1396      S1401   1.806       .  S
C1397      C1398   1.409       .  A
C1397      H1402   1.082       .  S
C1398      C1399   1.417       .  A
C1399      C1400   1.401       .  A
C1399      S1403   1.803       .  S
C1400      H1404   1.084       .  S
S1401      H1406   1.407       .  S
S1403      H1407   1.407       .  S
C1409      C1410   1.403       .  A
C1409      C1414   1.405       .  A
C1409      H1419   1.083       .  S
C1410      C1415   1.487   1_565  S
C1410      C1411   1.413   1_565  A
C1411      C1412   1.403       .  A
C1411      S1416   1.803       .  S
C1412      C1413   1.402   1_545  A
C1412      H1417   1.083       .  S
C1413      C1414   1.408       .  A
C1414      S1418   1.801       .  S
C1415      C1420   1.410       .  A
C1415      C1424   1.399       .  A
S1416      H1432   1.406       .  S
S1418      H1429   1.406       .  S
C1420      C1421   1.409       .  A
C1420      S1425   1.805       .  S
C1421      C1422   1.408       .  A
C1421      H1426   1.083       .  S
C1422      C1423   1.420       .  A
C1423      C1424   1.399       .  A
C1423      S1427   1.803       .  S
C1424      H1428   1.084       .  S
S1425      H1430   1.407       .  S
S1427      H1431   1.407   1_545  S
C1433      C1434   1.407   1_545  A
C1433      C1438   1.403       .  A
C1433      H1443   1.084       .  S
C1434      C1439   1.488       .  S
C1434      C1435   1.413       .  A
C1435      C1436   1.399       .  A
C1435      S1440   1.805       .  S
C1436      C1437   1.405   1_565  A
C1437      C1438   1.411       .  A
C1438      S1442   1.798       .  S
C1439      C1444   1.411       .  A
C1439      C1448   1.402   1_565  A
S1440      H1456   1.405       .  S
S1442      H1453   1.406       .  S
C1444      C1445   1.409       .  A
C1444      S1449   1.805       .  S
C1445      C1446   1.407       .  A
C1445      H1450   1.083       .  S
C1446      C1447   1.416   1_565  A
C1447      C1448   1.398       .  A
C1447      S1451   1.805       .  S
C1448      H1452   1.084       .  S
S1449      H1454   1.407       .  S
S1451      H1455   1.407       .  S
C1457      C1458   1.399       .  A
C1457      C1462   1.397       .  A
C1457      H1467   1.084       .  S
C1458      C1463   1.485       .  S
C1458      C1459   1.415       .  A
C1459      C1460   1.403       .  A
C1459      S1464   1.804   1_545  S
C1460      C1461   1.404       .  A
C1460      H1465   1.083   1_545  S
C1461      C1462   1.418       .  A
C1462      S1466   1.807       .  S
C1463      C1468   1.409       .  A
C1463      C1472   1.401       .  A
S1464      H1480   1.406   1_565  S
S1466      H1477   1.402       .  S
C1468      C1469   1.402       .  A
C1468      S1473   1.809   1_545  S
C1469      C1470   1.411       .  A
C1469      H1474   1.082       .  S
C1470      C1471   1.421       .  A
C1471      C1472   1.402       .  A
C1471      S1475   1.802       .  S
C1472      H1476   1.084       .  S
S1473      H1478   1.407       .  S
S1475      H1479   1.408       .  S
C1481      C1482   1.402       .  A
C1481      C1486   1.400       .  A
C1481      H1491   1.084       .  S
C1482      C1487   1.487   1_545  S
C1482      C1483   1.413   1_545  A
C1483      C1484   1.403       .  A
C1483      S1488   1.804       .  S
C1484      C1485   1.406   1_565  A
C1484      H1489   1.083       .  S
C1485      C1486   1.417       .  A
C1487      C1492   1.409       .  A
C1487      C1496   1.400   1_565  A
S1488      H1504   1.406       .  S
S1490      H1501   1.400       .  S
C1492      C1493   1.406       .  A
C1492      S1497   1.807       .  S
C1493      C1494   1.410       .  A
C1493      H1498   1.082       .  S
C1494      C1495   1.423   1_565  A
C1495      C1496   1.401       .  A
C1495      S1499   1.802       .  S
C1496      H1500   1.084       .  S
S1497      H1502   1.406       .  S
S1499      H1503   1.408       .  S
C1505      C1506   1.403       .  A
C1505      C1510   1.403       .  A
C1505      H1515   1.083       .  S
C1506      C1511   1.481       .  S
C1506      C1507   1.410       .  A
C1507      C1508   1.401       .  A
C1507      S1512   1.805       .  S
C1508      C1509   1.408       .  A
C1508      H1513   1.084       .  S
C1509      C1510   1.412       .  A
C1510      S1514   1.807       .  S
C1511      C1516   1.412   1_655  A
C1511      C1520   1.400       .  A
S1512      H1528   1.405       .  S
S1514      H1525   1.406       .  S
C1516      C1517   1.405       .  A
C1516      S1521   1.806       .  S
C1517      C1518   1.402   1_455  A
C1517      H1522   1.083       .  S
C1518      C1519   1.412       .  A
C1519      C1520   1.396       .  A
C1519      S1523   1.804       .  S
C1520      H1524   1.084       .  S
S1521      H1526   1.407       .  S
S1523      H1527   1.407       .  S
C1529      C1530   1.403       .  A
C1529      C1534   1.405       .  A
C1529      H1539   1.084       .  S
C1530      C1535   1.485       .  S
C1530      C1531   1.411       .  A
C1531      C1532   1.400       .  A
C1531      S1536   1.807       .  S
C1532      C1533   1.409       .  A
C1532      H1537   1.083       .  S
C1533      C1534   1.419       .  A
C1534      S1538   1.801       .  S
C1535      C1540   1.410   1_455  A
C1535      C1544   1.402       .  A
S1536      H1552   1.404       .  S
S1538      H1549   1.407       .  S
C1540      C1541   1.405       .  A
C1540      S1545   1.805       .  S
C1541      C1542   1.404       .  A
C1541      H1546   1.082       .  S
C1542      C1543   1.413   1_655  A
C1543      C1544   1.401       .  A
C1543      S1547   1.797       .  S
C1544      H1548   1.084       .  S
S1545      H1550   1.407       .  S
S1547      H1551   1.406       .  S
C1553      C1554   1.399       .  A
C1553      C1558   1.394       .  A
C1553      H1563   1.084       .  S
C1554      C1559   1.482       .  S
C1554      C1555   1.413   1_455  A
C1555      C1556   1.403       .  A
C1555      S1560   1.803       .  S
C1556      C1557   1.404   1_655  A
C1556      H1561   1.084       .  S
C1557      C1558   1.416       .  A
C1558      S1562   1.807       .  S
C1559      C1564   1.409       .  A
C1559      C1568   1.402   1_455  A
S1560      H1576   1.406       .  S
S1562      H1573   1.401       .  S
C1564      C1565   1.404       .  A
C1564      S1569   1.806       .  S
C1565      C1566   1.406       .  A
C1565      H1570   1.083       .  S
C1566      C1567   1.416   1_455  A
C1567      C1568   1.398       .  A
C1567      S1571   1.803       .  S
C1568      H1572   1.084       .  S
S1569      H1574   1.407       .  S
S1571      H1575   1.407       .  S
C1577      C1578   1.403   1_655  A
C1577      C1582   1.397       .  A
C1577      H1587   1.084       .  S
C1578      C1583   1.482       .  S
C1578      C1579   1.415       .  A
C1579      C1580   1.400       .  A
C1579      S1584   1.805       .  S
C1580      C1581   1.401       .  A
C1580      H1585   1.084       .  S
C1581      C1582   1.411   1_455  A
C1582      S1586   1.807       .  S
C1583      C1588   1.409       .  A
C1583      C1592   1.404       .  A
S1584      H1600   1.405       .  S
S1586      H1597   1.403       .  S
C1588      C1589   1.404       .  A
C1588      S1593   1.807       .  S
C1589      C1590   1.407       .  A
C1589      H1594   1.083       .  S
C1590      C1591   1.411       .  A
C1591      C1592   1.398       .  A
C1591      S1595   1.803       .  S
C1592      H1596   1.084       .  S
S1593      H1598   1.407       .  S
S1595      H1599   1.407       .  S
C1601      C1602   1.404       .  A
C1601      C1606   1.406       .  A
C1601      H1611   1.084       .  S
C1602      C1607   1.484       .  S
C1602      C1603   1.411       .  A
C1603      C1604   1.398       .  A
C1603      S1608   1.806       .  S
C1604      C1605   1.407       .  A
C1604      H1609   1.084       .  S
C1605      C1606   1.417       .  A
C1606      S1610   1.802       .  S
C1607      C1612   1.410       .  A
C1607      C1616   1.403   1_655  A
S1608      H1624   1.405   1_655  S
S1610      H1621   1.407       .  S
C1612      C1613   1.404       .  A
C1612      S1617   1.806       .  S
C1613      C1614   1.402   1_655  A
C1613      H1618   1.080       .  S
C1614      C1615   1.411       .  A
C1615      C1616   1.402       .  A
C1615      S1619   1.798       .  S
C1616      H1620   1.084       .  S
S1617      H1622   1.407       .  S
S1619      H1623   1.405       .  S
C1625      C1626   1.400       .  A
C1625      C1630   1.395       .  A
C1625      H1635   1.084       .  S
C1626      C1631   1.481       .  S
C1626      C1627   1.413   1_455  A
C1627      C1628   1.403       .  A
C1627      S1632   1.803       .  S
C1628      C1629   1.404   1_655  A
C1628      H1633   1.084       .  S
C1629      C1630   1.415       .  A
C1631      C1636   1.408       .  A
C1631      C1640   1.402   1_455  A
S1632      H1648   1.406       .  S
S1634      H1645   1.401       .  S
C1636      C1637   1.403       .  A
C1636      S1641   1.807       .  S
C1637      C1638   1.408       .  A
C1637      H1642   1.083       .  S
C1638      C1639   1.414   1_455  A
C1639      C1640   1.400       .  A
C1639      S1643   1.796       .  S
C1640      H1644   1.084       .  S
S1641      H1646   1.407       .  S
S1643      H1647   1.405       .  S
