geometry optimzed in LAMMPS
_audit_creation_date              2020-12-01 
_audit_creation_method            'lammps2cif' 
_symmetry_space_group_name_H-M    'P1' 
_symmetry_Int_Tables_number       1 
_symmetry_cell_setting            triclinic 
loop_ 
_symmetry_equiv_pos_as_xyz 
  x,y,z 
_cell_length_a                    38.06668391 
_cell_length_b                    28.969744840684495 
_cell_length_c                    33.23740622273038 
_cell_angle_alpha                 89.80666520398911 
_cell_angle_beta                  110.54774211342166 
_cell_angle_gamma                 89.07806167917649 
loop_ 
_atom_site_label 
_atom_site_type_symbol 
_atom_site_fract_x 
_atom_site_fract_y 
_atom_site_fract_z 
_atom_site_charge 
C1          C  0.34236549  0.62853624  0.37186806     0.31000
C2          C  0.35147721  0.66041693  0.45336679     0.31000
C3          C  0.33587266  0.59391406  0.40360836    -0.05200
C4          C  0.38105184  0.64972541  0.39757226    -0.06000
C5          C  0.31686122  0.66923008  0.37370889    -0.05900
C6          C  0.34026844  0.60948999  0.44414347    -0.05200
C7          C  0.38551220  0.66465039  0.43891948    -0.06000
C8          C  0.32023256  0.68472100  0.41511981    -0.05900
C9          C  0.33541657  0.57150735  0.46694536    -0.31300
N10         N  0.32910649  0.53350555  0.44160219     0.15200
C11         C  0.32801405  0.54724582  0.40246899    -0.31300
H12         H  0.32254863  0.52438037  0.37559894     0.17200
C13         C  0.41973639  0.68581762  0.45540893    -0.30200
N14         N  0.43613751  0.68566008  0.42510777     0.14000
C15         C  0.41148101  0.66709947  0.38883609    -0.30200
C16         C  0.29230322  0.71771531  0.40856928    -0.30500
N17         N  0.27544301  0.72538902  0.36573843     0.14500
H18         H  0.28268240  0.73307913  0.43245013     0.17100
C19         C  0.29098108  0.69708351  0.34423972    -0.30500
H20         H  0.28266305  0.69572886  0.30962399     0.17100
H21         H  0.41564657  0.66615284  0.35832052     0.17100
H22         H  0.33891685  0.57113277  0.49942745     0.17200
H23         H  0.43203006  0.69914052  0.48758806     0.17100
C24         C  0.36064831  0.36046258  0.46457705     0.31000
C25         C  0.36529005  0.39713220  0.54307714     0.31000
C26         C  0.34911221  0.41204826  0.46445353    -0.05200
C27         C  0.33617710  0.33698209  0.48781576    -0.06000
C28         C  0.39994856  0.35994629  0.50016978    -0.05900
C29         C  0.34870212  0.42881457  0.50314338    -0.05200
C30         C  0.33845947  0.35578201  0.52818482    -0.06000
C31         C  0.40175433  0.37707698  0.53972191    -0.05900
C32         C  0.33532911  0.47381142  0.49623061    -0.31300
N33         N  0.33195976  0.48701353  0.45605556     0.15200
C34         C  0.34018836  0.44952622  0.43606154    -0.31300
H35         H  0.34143108  0.44995680  0.40412076     0.17200
C36         C  0.30582887  0.34291476  0.53463465    -0.30200
N37         N  0.28565951  0.31509368  0.50216107     0.14000
C38         C  0.30336494  0.31215722  0.47313931    -0.30200
C39         C  0.43888549  0.37498301  0.56693923    -0.30500
N40         N  0.46001445  0.35843188  0.54460437     0.14500
H41         H  0.44971687  0.38718884  0.59964586     0.17100
C42         C  0.43669906  0.35069255  0.50364868    -0.30500
H43         H  0.44612682  0.34206171  0.47754467     0.17100
H44         H  0.29188200  0.29570451  0.44218815     0.17100
H45         H  0.33049501  0.49610931  0.51959172     0.17200
H46         H  0.29594763  0.35550966  0.55942435     0.17100
O47         O  0.33155504  0.40739901  0.13118372    -0.80800
C48         C  0.38367358  0.36312000  0.30428753     0.98500
O49         O  0.38876075  0.33466700  0.27748905    -0.69900
O50         O  0.32755771  0.32323526  0.21100717    -0.73500
Al51       Al  0.37573005  0.34303977  0.21497703     1.49000
C52         C  0.29514515  0.33958999  0.19175223     0.93800
O53         O  0.30957676  0.45706614  0.22804587    -0.79800
O54         O  0.40824346  0.47251290  0.21203130    -0.73300
Al55       Al  0.32318078  0.43017507  0.18096473     1.90100
O56         O  0.36533859  0.48448460  0.25667537    -0.72400
O57         O  0.44163872  0.40254399  0.26713716    -0.72200
O58         O  0.38551124  0.40615247  0.29874978    -0.77900
O59         O  0.42637156  0.35242011  0.21635373    -0.76100
O60         O  0.36519446  0.40309390  0.21629014    -1.12200
O61         O  0.36284302  0.34199609  0.15383326    -0.71400
C62         C  0.34634729  0.37031870  0.12380321     0.99300
C63         C  0.33234538  0.48309459  0.25512548     0.95700
Al64       Al  0.39753285  0.43775924  0.25534214     1.55600
O65         O  0.29069007  0.38089824  0.17910779    -0.76000
C66         C  0.45075966  0.37673191  0.24256997     0.99900
C67         C  0.38192589  0.49599110  0.18444321     0.94700
O68         O  0.34774770  0.48529999  0.17423729    -0.81400
C69         C  0.34325097  0.37678542  0.94903888     0.31000
C70         C  0.33324925  0.41906585  0.87083290     0.31000
C71         C  0.33123427  0.42765812  0.94444413    -0.05200
C72         C  0.37877389  0.37908764  0.93629830    -0.06000
C73         C  0.31525969  0.35434293  0.90870913    -0.05900
C74         C  0.32304123  0.44792399  0.90464780    -0.05200
C75         C  0.37349026  0.39985147  0.89621459    -0.06000
C76         C  0.30926647  0.37612320  0.86901313    -0.05900
C77         C  0.31460283  0.49381130  0.90939841    -0.31300
N78         N  0.32359993  0.50291436  0.95166185     0.15200
C79         C  0.33353514  0.46246573  0.97351520    -0.31300
H80         H  0.34514812  0.45896063  0.00814164     0.17200
C81         C  0.40772746  0.39739356  0.88983557    -0.30200
N82         N  0.43362001  0.37689768  0.92498780     0.14000
C83         C  0.41645398  0.36756424  0.95376338    -0.30200
C84         C  0.27980830  0.35351554  0.83942707    -0.30500
N85         N  0.27000640  0.31752075  0.85926191     0.14500
H86         H  0.26476677  0.36352247  0.80646692     0.17100
C87         C  0.29127066  0.31780766  0.90154760    -0.30500
H88         H  0.28821261  0.29446675  0.92555706     0.17100
H89         H  0.43095796  0.35572605  0.98606720     0.17100
H90         H  0.30637025  0.52008714  0.88469802     0.17200
H91         H  0.41332778  0.41038450  0.86217672     0.17100
C92         C  0.37714595  0.63231595  0.05622223     0.31000
C93         C  0.37250114  0.66553097  0.97626634     0.31000
C94         C  0.36209290  0.59949151  0.01826858    -0.05200
C95         C  0.34847488  0.67403649  0.03824168    -0.06000
C96         C  0.41304624  0.65204045  0.05269150    -0.05900
C97         C  0.35978534  0.61608090  0.97869355    -0.05200
C98         C  0.34599927  0.69121565  0.99648089    -0.06000
C99         C  0.41012080  0.66979797  0.01323444    -0.05900
C100        C  0.34196261  0.58338276  0.94889987    -0.31300
N101        N  0.33419173  0.54678560  0.96974478     0.15200
C102        C  0.34563002  0.55662900  0.01214759    -0.31300
H103        H  0.34258675  0.53413161  0.03671025     0.17200
C104        C  0.31075030  0.71254973  0.97912960    -0.30200
N105        N  0.29311962  0.71217409  0.00831521     0.14000
C106        C  0.31467423  0.68682495  0.04291238    -0.30200
C107        C  0.44542783  0.68225470  0.01555279    -0.30500
N108        N  0.47038824  0.66956511  0.05451292     0.14500
H109        H  0.45253549  0.69469568  0.98875885     0.17100
C110        C  0.45079644  0.65240432  0.07820933    -0.30500
H111        H  0.46318301  0.63739445  0.11001939     0.17100
H112        H  0.30477855  0.67545160  0.06795532     0.17100
H113        H  0.33639424  0.58568656  0.91481994     0.17200
H114        H  0.29740994  0.72457754  0.94643599     0.17100
O115        O  0.34458813  0.54883611  0.66469514    -0.80800
C116        C  0.39022236  0.65799020  0.80727774     0.98500
O117        O  0.39100110  0.61594120  0.79731936    -0.69900
O118        O  0.35885319  0.54582731  0.75113369    -0.73500
Al119      Al  0.39664515  0.58576384  0.74970542     1.49000
C120        C  0.32380887  0.54873703  0.74044749     0.93800
O121        O  0.29390646  0.65941896  0.67188516    -0.79800
O122        O  0.36780325  0.69689660  0.65896582    -0.73300
Al123      Al  0.32457421  0.60732289  0.67358520     1.90100
O124        O  0.32980431  0.70856392  0.71593152    -0.72400
O125        O  0.42962702  0.68107653  0.72447853    -0.72200
O126        O  0.38951099  0.68957107  0.78066331    -0.77900
O127        O  0.44259714  0.61443173  0.75688498    -0.76100
O128        O  0.36654900  0.62739577  0.71409857    -1.12200
O129        O  0.40412070  0.54981929  0.70506154    -0.71400
C130        C  0.37716906  0.53133451  0.67596172     0.99300
C131        C  0.29796875  0.69673444  0.69174367     0.95700
Al132      Al  0.37799461  0.68823730  0.71944570     1.55600
O133        O  0.30508251  0.57926486  0.71393622    -0.76000
C134        C  0.45311558  0.65009084  0.74321268     0.99900
C135        C  0.35589814  0.66983498  0.62744105     0.94700
O136        O  0.33991964  0.63253730  0.63003076    -0.81400
C137        C  0.60799842  0.61636542  0.11342284     0.31000
C138        C  0.59517294  0.65738472  0.03416110     0.31000
C139        C  0.61824404  0.58751008  0.07974935    -0.05200
C140        C  0.56779343  0.63464698  0.08901384    -0.06000
C141        C  0.63126178  0.65977046  0.11382225    -0.05900
C142        C  0.61076605  0.60750590  0.03980948    -0.05200
C143        C  0.56203132  0.65560574  0.04964881    -0.06000
C144        C  0.62492876  0.68085835  0.07314955    -0.05900
C145        C  0.61480148  0.57302975  0.01282833    -0.31300
N146        N  0.62304571  0.53260259  0.03502038     0.15200
C147        C  0.62868228  0.54212720  0.07659107    -0.31300
H148        H  0.63590368  0.51633826  0.10172213     0.17200
C149        C  0.52635113  0.67364459  0.03465963    -0.30200
N150        N  0.50923471  0.66308790  0.06296453     0.14000
C151        C  0.53436180  0.63950441  0.09670594    -0.30200
C152        C  0.65208432  0.71384727  0.07975755    -0.30500
N153        N  0.67291807  0.71465821  0.12212602     0.14500
H154        H  0.65859219  0.73375344  0.05590219     0.17100
C155        C  0.66173793  0.68086114  0.14275483    -0.30500
H156        H  0.67683506  0.67093489  0.17568190     0.17100
H157        H  0.52882654  0.62646600  0.12438326     0.17100
H158        H  0.60806929  0.57591208  0.97854959     0.17200
H159        H  0.51386904  0.69251678  0.00479256     0.17100
C160        C  0.57144021  0.37115698  0.01059716     0.31000
C161        C  0.56870555  0.40218105  0.93060190     0.31000
C162        C  0.58561873  0.41968106  0.00792947    -0.05200
C163        C  0.59727410  0.34336747  0.99104471    -0.06000
C164        C  0.53339591  0.36867887  0.97337259    -0.05900
C165        C  0.58288774  0.43594171  0.96814278    -0.05200
C166        C  0.59459075  0.35825985  0.94914296    -0.06000
C167        C  0.53081655  0.38510915  0.93317393    -0.05900
C168        C  0.59829049  0.47956542  0.97392469    -0.31300
N169        N  0.61146837  0.48896990  0.01655196     0.15200
C170        C  0.60413535  0.45218766  0.03756411    -0.31300
H171        H  0.61045589  0.44956723  0.07172624     0.17200
C172        C  0.62322685  0.33573668  0.93976287    -0.30200
N173        N  0.64616963  0.31290768  0.97532036     0.14000
C174        C  0.63130539  0.31865877  0.00695471    -0.30200
C175        C  0.49243624  0.38350242  0.90806593    -0.30500
N176        N  0.47267908  0.37014033  0.93320768     0.14500
H177        H  0.47955834  0.39344091  0.87466398     0.17100
C178        C  0.49788993  0.35805652  0.97203923    -0.30500
H179        H  0.49103417  0.34650184  0.99926263     0.17100
H180        H  0.64575998  0.30853415  0.04006071     0.17100
H181        H  0.59981888  0.50258243  0.94894151     0.17200
H182        H  0.62924615  0.33949882  0.91044812     0.17100
O183        O  0.60229933  0.40458079  0.35677715    -0.80800
C184        C  0.55101753  0.37621656  0.17883174     0.98500
O185        O  0.55169999  0.34438082  0.20552846    -0.69900
O186        O  0.61308872  0.32713608  0.27055314    -0.73500
Al187      Al  0.56489085  0.34592914  0.26796194     1.49000
C188        C  0.64421332  0.33813889  0.29715590     0.93800
O189        O  0.63413704  0.45609231  0.27038617    -0.79800
O190        O  0.53369579  0.47995358  0.28087130    -0.73300
Al191      Al  0.61596990  0.42880974  0.31218366     1.90100
O192        O  0.57988796  0.48979084  0.23543317    -0.72400
O193        O  0.49786521  0.41486878  0.22690476    -0.72200
O194        O  0.55092330  0.41807628  0.18939944    -0.77900
O195        O  0.51429800  0.35185869  0.26498233    -0.76100
O196        O  0.57462086  0.40668397  0.27231486    -1.12200
O197        O  0.57703541  0.33818870  0.32937935    -0.71400
C198        C  0.58940942  0.36560142  0.36079944     0.99300
C199        C  0.61480504  0.48649584  0.24417638     0.95700
Al200      Al  0.54322667  0.44671899  0.23616593     1.55600
O201        O  0.64799939  0.37643166  0.31574952    -0.76000
C202        C  0.48936810  0.37985213  0.24349553     0.99900
C203        C  0.55960921  0.50050768  0.30961914     0.94700
O204        O  0.59341198  0.48686223  0.31993155    -0.81400
C205        C  0.58758667  0.37507399  0.53459213     0.31000
C206        C  0.59558397  0.40838115  0.61523253     0.31000
C207        C  0.59509618  0.42642094  0.54196174    -0.05200
C208        C  0.55413186  0.36738932  0.54923908    -0.06000
C209        C  0.61863578  0.35202703  0.57302558    -0.05900
C210        C  0.60112620  0.44256852  0.58251513    -0.05200
C211        C  0.55775140  0.38436169  0.58980708    -0.06000
C212        C  0.62453254  0.36980274  0.61427563    -0.05900
C213        C  0.60793625  0.48933467  0.58190508    -0.31300
N214        N  0.60328177  0.50204908  0.54126779     0.15200
C215        C  0.59585948  0.46369957  0.51652687    -0.31300
H216        H  0.58924346  0.46302030  0.48213018     0.17200
C217        C  0.52347281  0.37732207  0.59483383    -0.30200
N218        N  0.49974770  0.35753581  0.55855001     0.14000
C219        C  0.51936756  0.34795196  0.53249202    -0.30200
C220        C  0.65596827  0.34574955  0.64120597    -0.30500
N221        N  0.66640153  0.31235142  0.61850139     0.14500
H222        H  0.67160604  0.35291241  0.67429235     0.17100
C223        C  0.64265466  0.31529792  0.57719389    -0.30500
H224        H  0.64280586  0.29257505  0.55151250     0.17100
H225        H  0.50838182  0.32994340  0.50240513     0.17100
H226        H  0.61384624  0.51295704  0.60837003     0.17200
H227        H  0.51560782  0.38943973  0.62128723     0.17100
C228        C  0.56637264  0.63588063  0.43851597     0.31000
C229        C  0.57201917  0.67407849  0.51678680     0.31000
C230        C  0.57818509  0.60379809  0.47738227    -0.05200
C231        C  0.59769703  0.67254194  0.45606858    -0.06000
C232        C  0.53167510  0.66218888  0.44013369    -0.05900
C233        C  0.57948406  0.62171617  0.51613335    -0.05200
C234        C  0.60025090  0.69284646  0.49606255    -0.06000
C235        C  0.53479652  0.68320781  0.47843174    -0.05900
C236        C  0.59159823  0.58594688  0.54591846    -0.31300
N237        N  0.59809895  0.54780169  0.52545823     0.15200
C238        C  0.59156386  0.55917124  0.48413145    -0.31300
H239        H  0.59494068  0.53614357  0.46016703     0.17200
C240        C  0.63177074  0.72005194  0.50816373    -0.30200
N241        N  0.64964362  0.71445590  0.47952203     0.14000
C242        C  0.62970963  0.68513669  0.44833370    -0.30200
C243        C  0.50000492  0.70350997  0.47244987    -0.30500
N244        N  0.47512375  0.69073662  0.43377668     0.14500
H245        H  0.49230887  0.72160312  0.49659984     0.17100
C246        C  0.49477987  0.66724507  0.41302253    -0.30500
H247        H  0.48264890  0.65102967  0.38214218     0.17100
H248        H  0.63919815  0.67199155  0.42342679     0.17100
H249        H  0.59494501  0.58761062  0.57954474     0.17200
H250        H  0.64195957  0.74127131  0.53642532     0.17100
O251        O  0.59466850  0.57128937  0.83004559    -0.80800
C252        C  0.55517704  0.68738269  0.68537176     0.98500
O253        O  0.53579618  0.65296633  0.68776682    -0.69900
O254        O  0.59200459  0.59680321  0.71377760    -0.73500
Al255      Al  0.55096378  0.60484457  0.73153472     1.49000
C256        C  0.61353042  0.56404419  0.73088775     0.93800
O257        O  0.65063728  0.65739742  0.79401244    -0.79800
O258        O  0.56303098  0.69099585  0.82811157    -0.73300
Al259      Al  0.62061399  0.61497500  0.81041761     1.90100
O260        O  0.61766888  0.71877505  0.79832567    -0.72400
O261        O  0.51104172  0.68898975  0.74932467    -0.72200
O262        O  0.57152054  0.70995547  0.71885739    -0.77900
O263        O  0.50875665  0.61320238  0.74687551    -0.76100
O264        O  0.57871498  0.63914411  0.77278206    -1.12200
O265        O  0.55984031  0.54723010  0.76610764    -0.71400
C266        C  0.57551381  0.54019598  0.80632765     0.99300
C267        C  0.64860712  0.70033660  0.79981854     0.95700
Al268      Al  0.56649604  0.69821679  0.77352774     1.55600
O269        O  0.63023357  0.56643185  0.77140814    -0.76000
C270        C  0.49297061  0.65163280  0.74693106     0.99900
C271        C  0.58954632  0.67581454  0.86065099     0.94700
O272        O  0.61779750  0.65424358  0.85710725    -0.81400
C273        C  0.08835834  0.86665143  0.53630946     0.31000
C274        C  0.09235945  0.90133769  0.61540815     0.31000
C275        C  0.09186156  0.91926377  0.54165151    -0.05200
C276        C  0.05376050  0.85834670  0.54958533    -0.06000
C277        C  0.12030234  0.84740578  0.57647489    -0.05900
C278        C  0.09606754  0.93612384  0.58176759    -0.05200
C279        C  0.05695582  0.87390026  0.59066149    -0.06000
C280        C  0.12320316  0.86597551  0.61658240    -0.05900
C281        C  0.10014797  0.98337283  0.57999488    -0.31300
N282        N  0.09517262  0.99595393  0.53917112     0.15200
C283        C  0.09024473  0.95702158  0.51521893    -0.31300
H284        H  0.08479331  0.95606079  0.48103743     0.17200
C285        C  0.02374906  0.86519717  0.59691746    -0.30200
N286        N  0.99921989  0.84897341  0.55975743     0.14000
C287        C  0.01672250  0.84624605  0.53045132    -0.30200
C288        C  0.15429194  0.84532499  0.64645071    -0.30500
N289        N  0.16830364  0.81329258  0.62643579     0.14500
H290        H  0.16732077  0.85332666  0.67991042     0.17100
C291        C  0.14807545  0.81409801  0.58383536    -0.30500
H292        H  0.15363584  0.79264383  0.56007051     0.17100
H293        H  0.00239577  0.84084238  0.49662337     0.17100
H294        H  0.10564184  0.00715802  0.60620107     0.17200
H295        H  0.01700418  0.87394433  0.62501767     0.17100
C296        C  0.07144308  0.13687582  0.44187416     0.31000
C297        C  0.07360417  0.17064990  0.52016210     0.31000
C298        C  0.08093499  0.10214703  0.47930574    -0.05200
C299        C  0.10048168  0.17557325  0.46123434    -0.06000
C300        C  0.03503271  0.16175953  0.44205151    -0.05900
C301        C  0.08100757  0.11840337  0.51826072    -0.05200
C302        C  0.10197299  0.19172799  0.50161168    -0.06000
C303        C  0.03583322  0.17669151  0.48225021    -0.05900
C304        C  0.08699429  0.08028318  0.54531340    -0.31300
N305        N  0.09130482  0.04200756  0.52370511     0.15200
C306        C  0.08792087  0.05507223  0.48344066    -0.31300
H307        H  0.08926501  0.03195429  0.45852250     0.17200
C308        C  0.13108824  0.22262040  0.51537945    -0.30200
N309        N  0.14659518  0.22703739  0.48442039     0.14000
C310        C  0.12725004  0.20006037  0.45075853    -0.30200
C311        C  0.99882634  0.18152773  0.47888095    -0.30500
N312        N  0.97596773  0.17621654  0.43745800     0.14500
H313        H  0.98913446  0.18363483  0.50565454     0.17100
C314        C  0.99787043  0.16513228  0.41419551    -0.30500
H315        H  0.98728924  0.15496340  0.38085950     0.17100
H316        H  0.13334462  0.19742402  0.42142197     0.17100
H317        H  0.08751841  0.08040074  0.57794489     0.17200
H318        H  0.14113759  0.23940557  0.54627654     0.17100
O319        O  0.09441781  0.06692202  0.83214087    -0.80800
C320        C  0.05386420  0.17421619  0.68339124     0.98500
O321        O  0.03466595  0.13959850  0.68582050    -0.69900
O322        O  0.09010677  0.08533171  0.71459359    -0.73500
Al323      Al  0.04986300  0.09379120  0.73216042     1.49000
C324        C  0.11124477  0.05283621  0.73199544     0.93800
O325        O  0.14928189  0.15091335  0.79105717    -0.79800
O326        O  0.06136335  0.18444395  0.82513883    -0.73300
Al327      Al  0.11974436  0.10854719  0.80948597     1.90100
O328        O  0.11436847  0.21099685  0.79338790    -0.72400
O329        O  0.00945383  0.17910998  0.74641587    -0.72200
O330        O  0.06860869  0.19859734  0.71592547    -0.77900
O331        O  0.00784275  0.10321828  0.74650321    -0.76100
O332        O  0.07721960  0.13047201  0.77148888    -1.12200
O333        O  0.06016722  0.03761049  0.77061999    -0.71400
C334        C  0.07712476  0.03316693  0.81117935     0.99300
C335        C  0.14571144  0.19422504  0.79475249     0.95700
Al336      Al  0.06406961  0.18929317  0.77022348     1.55600
O337        O  0.12917347  0.05704068  0.77219443    -0.76000
C338        C  0.99148679  0.14175766  0.74325167     0.99900
C339        C  0.08899547  0.17185881  0.85779622     0.94700
O340        O  0.11702888  0.15002416  0.85399032    -0.81400
C341        C  0.10148184  0.12624867  0.11346547     0.31000
C342        C  0.09315044  0.16315038  0.03441163     0.31000
C343        C  0.10673481  0.09328510  0.08051439    -0.05200
C344        C  0.06245271  0.15002986  0.08889235    -0.06000
C345        C  0.12793474  0.16576108  0.11371920    -0.05900
C346        C  0.10244618  0.11143534  0.04088420    -0.05200
C347        C  0.05861674  0.16921037  0.04886199    -0.06000
C348        C  0.12352805  0.18516451  0.07354670    -0.05900
C349        C  0.10358828  0.07485104  0.01476465    -0.31300
N350        N  0.10835752  0.03520944  0.03814887     0.15200
C351        C  0.11066198  0.04624613  0.07853031    -0.31300
H352        H  0.11242632  0.02189851  0.10389510     0.17200
C353        C  0.02314618  0.18947485  0.03272570    -0.30200
N354        N  0.00409581  0.18053244  0.05970690     0.14000
C355        C  0.02833647  0.15819876  0.09489864    -0.30200
C356        C  0.14680894  0.22274016  0.08137671    -0.30500
N357        N  0.16607188  0.22489055  0.12426120     0.14500
H358        H  0.15033796  0.24617303  0.05771142     0.17100
C359        C  0.15432381  0.19096254  0.14440537    -0.30500
H360        H  0.16472935  0.18482678  0.17875790     0.17100
H361        H  0.02108978  0.14696026  0.12197477     0.17100
H362        H  0.09872270  0.07688242  0.98074192     0.17200
H363        H  0.01149230  0.20746109  0.00225846     0.17100
C364        C  0.07539634  0.86687539  0.01675418     0.31000
C365        C  0.07711693  0.89773894  0.93829605     0.31000
C366        C  0.08913097  0.91611444  0.01471831    -0.05200
C367        C  0.10330458  0.83995510  0.99988669    -0.06000
C368        C  0.03870600  0.86365518  0.97724595    -0.07100
C369        C  0.08797004  0.93241531  0.97521490    -0.05200
C370        C  0.10305759  0.85501944  0.95915713    -0.06000
C371        C  0.03820671  0.88286981  0.93838095    -0.05900
C372        C  0.09623370  0.97879272  0.97983418    -0.31300
N373        N  0.10407763  0.99007124  0.02158602     0.15200
C374        C  0.10080869  0.95172709  0.04339463    -0.31300
H375        H  0.10385297  0.95033518  0.07695010     0.17200
C376        C  0.13287160  0.83296876  0.95193482    -0.30200
N377        N  0.15268743  0.80724373  0.98710322     0.14000
C378        C  0.13587147  0.81279674  0.01695123    -0.30200
C379        C  0.00093388  0.89787616  0.91766048    -0.30500
N380        N  0.97942083  0.88187800  0.93969417     0.14500
H381        H  0.99088015  0.92181018  0.89085921     0.17100
C382        C  0.00226265  0.85917673  0.97494035    -0.30500
H383        H  0.99378288  0.84562768  0.00036907     0.17100
H384        H  0.14833108  0.80080038  0.04976603     0.17100
H385        H  0.09535679  0.00270115  0.95445188     0.17200
H386        H  0.14136637  0.83825037  0.92444027     0.17100
O387        O  0.11545021  0.88357120  0.35496703    -0.80800
C388        C  0.04857062  0.86658555  0.18254103     0.98500
O389        O  0.06510433  0.84006585  0.21408442    -0.69900
O390        O  0.11258806  0.82370331  0.29157404    -0.73500
Al391      Al  0.06292595  0.84616670  0.27076380     1.49000
C392        C  0.14406293  0.84034197  0.29623636     0.93800
O393        O  0.12678393  0.97533753  0.27659455    -0.79800
O394        O  0.05112827  0.99437416  0.27575193    -0.73300
Al395      Al  0.11750663  0.92553032  0.31141886     1.90100
O396        O  0.08105819  0.96523697  0.21587691    -0.72400
O397        O  0.00414376  0.92895403  0.25171870    -0.72200
O398        O  0.03189568  0.90262303  0.18873764    -0.77900
O399        O  0.00876096  0.85410299  0.24840660    -0.76100
O400        O  0.07494048  0.90573162  0.27284959    -1.12200
O401        O  0.06168885  0.84827625  0.32845098    -0.71400
C402        C  0.08945232  0.86081802  0.36082978     0.99300
C403        C  0.10813734  0.98844447  0.23862093     0.95700
Al404      Al  0.04437013  0.94448769  0.23599348     1.55600
O405        O  0.14741256  0.88342524  0.29252645    -0.76000
C406        C  0.98939507  0.89015273  0.24695655     0.99900
C407        C  0.07004789  0.99906831  0.31503450     0.94700
O408        O  0.09336798  0.96850947  0.33546147    -0.81400
C409        C  0.84947547  0.87728301  0.94963292     0.31000
C410        C  0.83861886  0.91872299  0.87136635     0.31000
C411        C  0.83155547  0.92568968  0.94308979    -0.05200
C412        C  0.88541542  0.88698536  0.93991049    -0.06000
C413        C  0.82583111  0.85075248  0.90914071    -0.05900
C414        C  0.82284838  0.94514977  0.90256537    -0.05200
C415        C  0.87986622  0.90634795  0.89949700    -0.06000
C416        C  0.81958711  0.87203658  0.86924852    -0.05900
C417        C  0.81395340  0.99107719  0.90648412    -0.31300
N418        N  0.82423764  0.00175603  0.94850950     0.15200
C419        C  0.83488864  0.96189709  0.97134783    -0.31300
H420        H  0.84855571  0.95979144  0.00588025     0.17200
C421        C  0.91474941  0.90761533  0.89480499    -0.30200
N422        N  0.94105579  0.89208933  0.93204779     0.14000
C423        C  0.92353715  0.88214585  0.96018481    -0.30200
C424        C  0.78950132  0.84998713  0.84016597    -0.30500
N425        N  0.77927407  0.81466089  0.86039164     0.14500
H426        H  0.77398039  0.86089768  0.80755530     0.17100
C427        C  0.80142836  0.81474535  0.90238375    -0.30500
H428        H  0.79750155  0.79297683  0.92694739     0.17100
H429        H  0.93785642  0.87318468  0.99342681     0.17100
H430        H  0.80522925  0.01661451  0.88114636     0.17200
H431        H  0.92026829  0.91791903  0.86630275     0.17100
C432        C  0.86907206  0.14054717  0.04521311     0.31000
C433        C  0.86828788  0.16765195  0.96508421     0.31000
C434        C  0.85816635  0.10420383  0.00977209    -0.05200
C435        C  0.84084403  0.18135665  0.02297528    -0.06000
C436        C  0.90629918  0.16116444  0.04376081    -0.05900
C437        C  0.85664900  0.11810674  0.96982467    -0.05200
C438        C  0.83940904  0.19416074  0.98105946    -0.06000
C439        C  0.90503320  0.17486066  0.00334135    -0.05900
C440        C  0.84148782  0.08241824  0.94209181    -0.31300
N441        N  0.83502902  0.04645634  0.96472678     0.15200
C442        C  0.84513105  0.05931583  0.00628377    -0.31300
H443        H  0.84273444  0.03787208  0.03186671     0.17200
C444        C  0.80657669  0.22071064  0.96342694    -0.30200
N445        N  0.79057221  0.22840007  0.99378417     0.14000
C446        C  0.81218294  0.20604579  0.03042713    -0.30200
C447        C  0.94041423  0.18903591  0.00666338    -0.30500
N448        N  0.96426369  0.18306754  0.04769961     0.14500
H449        H  0.94863363  0.19881363  0.97987200     0.17100
C450        C  0.94343509  0.16794828  0.07116725    -0.30500
H451        H  0.95489033  0.15910356  0.10498302     0.17100
H452        H  0.80581810  0.20541541  0.05967683     0.17100
H453        H  0.83668404  0.08246390  0.90822046     0.17200
H454        H  0.79377926  0.23121632  0.93017019     0.17100
O455        O  0.85104887  0.06348138  0.64349606    -0.80800
C456        C  0.89107907  0.16104462  0.79782929     0.98500
O457        O  0.90974313  0.12725350  0.79060044    -0.69900
O458        O  0.85923447  0.06671122  0.76137428    -0.73500
Al459      Al  0.89588630  0.08513795  0.74233464     1.49000
C460        C  0.82842197  0.04918232  0.74007439     0.93800
O461        O  0.79280695  0.14670186  0.68165240    -0.79800
O462        O  0.88274421  0.18664346  0.65783822    -0.73300
Al463      Al  0.82491634  0.10618287  0.66543310     1.90100
O464        O  0.82655395  0.20841015  0.68743934    -0.72400
O465        O  0.93181751  0.17583446  0.73642541    -0.72200
O466        O  0.87215256  0.18674672  0.76670716    -0.77900
O467        O  0.93604215  0.10142187  0.72593663    -0.76100
O468        O  0.86579976  0.12520365  0.70621803    -1.12200
O469        O  0.88660720  0.03190733  0.70343283    -0.71400
C470        C  0.86762859  0.02819777  0.66377098     0.99300
C471        C  0.79522821  0.18981029  0.68051185     0.95700
Al472      Al  0.87730037  0.18501039  0.71175142     1.55600
O473        O  0.81250272  0.05837395  0.70035269    -0.76000
C474        C  0.95106192  0.14039464  0.73427483     0.99900
C475        C  0.85882410  0.17244617  0.62345218     0.94700
O476        O  0.83097816  0.14860427  0.62329672    -0.81400
C477        C  0.84048949  0.11886735  0.37070727     0.31000
C478        C  0.85031307  0.15427668  0.45045268     0.31000
C479        C  0.83875491  0.08477116  0.40473052    -0.05200
C480        C  0.87869966  0.14322492  0.39356726    -0.06000
C481        C  0.81239492  0.15708846  0.37210963    -0.05900
C482        C  0.84271582  0.10215507  0.44462763    -0.05200
C483        C  0.88239300  0.16138673  0.43358527    -0.06000
C484        C  0.81636765  0.17450729  0.41285139    -0.05900
C485        C  0.84284717  0.06459673  0.47046646    -0.31300
N486        N  0.84127648  0.02554248  0.44745181     0.15200
C487        C  0.83831894  0.03755018  0.40708626    -0.31300
H488        H  0.83804999  0.01389806  0.38190396     0.17200
C489        C  0.91708609  0.18014455  0.45102131    -0.30200
N490        N  0.93645516  0.17230800  0.42445807     0.14000
C491        C  0.91309745  0.15130365  0.38847433    -0.30200
C492        C  0.78667494  0.20529123  0.40629825    -0.30500
N493        N  0.76724780  0.20902062  0.36346766     0.14500
H494        H  0.77901369  0.22343613  0.43041749     0.17100
C495        C  0.78267756  0.18002944  0.34224878    -0.30500
H496        H  0.77276201  0.17583659  0.30773786     0.17100
H497        H  0.92119418  0.14102516  0.36171492     0.17100
H498        H  0.84640784  0.06552750  0.50416254     0.17200
H499        H  0.92802533  0.19585924  0.48231115     0.17100
C500        C  0.86648565  0.85314094  0.46683190     0.31000
C501        C  0.86418749  0.88482068  0.54458620     0.31000
C502        C  0.85847066  0.90469730  0.47016750    -0.05200
C503        C  0.83602017  0.83106767  0.48196265    -0.06000
C504        C  0.90121932  0.84222305  0.50735697    -0.05900
C505        C  0.85909666  0.92079721  0.50924973    -0.05200
C506        C  0.83504324  0.84787232  0.52141260    -0.06000
C507        C  0.90156377  0.86102971  0.54642224    -0.05900
C508        C  0.85358708  0.96801430  0.50535525    -0.31300
N509        N  0.84759458  0.98022567  0.46418215     0.15200
C510        C  0.85047559  0.94186957  0.44224953    -0.31300
H511        H  0.84768377  0.94087518  0.40876028     0.17200
C512        C  0.80704131  0.82521411  0.53036145    -0.30200
N513        N  0.79107449  0.79485317  0.49850125     0.14000
C514        C  0.80930894  0.79669655  0.46990212    -0.30200
C515        C  0.93938279  0.86485791  0.57100468    -0.30500
N516        N  0.96034362  0.84361618  0.55036194     0.14500
H517        H  0.95083573  0.88611132  0.59908727     0.17100
C518        C  0.93689679  0.82738780  0.51264062    -0.30500
H519        H  0.94564555  0.81227962  0.48790689     0.17100
H520        H  0.80338092  0.77408199  0.44268876     0.17100
H521        H  0.85381636  0.99166778  0.53047065     0.17200
H522        H  0.79796301  0.83152260  0.55731014     0.17100
O523        O  0.82453411  0.88187711  0.12656025    -0.80800
C524        C  0.88833956  0.86143945  0.29920687     0.98500
O525        O  0.87397338  0.83606099  0.26695094    -0.69900
O526        O  0.82725449  0.82207602  0.18872023    -0.73500
Al527      Al  0.87702617  0.84452801  0.21136150     1.49000
C528        C  0.79571520  0.83861584  0.18648465     0.93800
O529        O  0.80893628  0.97459606  0.20241651    -0.79800
O530        O  0.88382577  0.99229677  0.20683635    -0.73300
Al531      Al  0.82049823  0.92400774  0.16938100     1.90100
O532        O  0.85199611  0.96179833  0.26475493    -0.72400
O533        O  0.93330603  0.92825469  0.23501106    -0.72200
O534        O  0.90298517  0.89938164  0.29496200    -0.77900
O535        O  0.93094012  0.85308425  0.23508572    -0.76100
O536        O  0.86308744  0.90393812  0.20928628    -1.12200
O537        O  0.87992035  0.84800214  0.15512865    -0.71400
C538        C  0.85188906  0.85927237  0.12224939     0.99300
C539        C  0.82612385  0.98693099  0.24069097     0.95700
Al540      Al  0.89103990  0.94226999  0.24740167     1.55600
O541        O  0.79156890  0.88191713  0.18882843    -0.76000
C542        C  0.94922760  0.88968115  0.23846570     0.99900
C543        C  0.86577126  0.99775878  0.16710819     0.94700
O544        O  0.84432430  0.96701006  0.14578273    -0.81400
C545        C  0.87372359  0.84699466  0.42337982    -0.04400
C546        C  0.84623431  0.83109058  0.38493556    -0.01500
C547        C  0.85340395  0.82961225  0.34571491     0.03500
C548        C  0.88618016  0.84914020  0.34232917    -0.04400
C549        C  0.91331678  0.86605970  0.37985172    -0.01500
C550        C  0.90614626  0.86817960  0.41866061     0.03500
C551        C  0.80757631  0.82681158  0.38179300     0.38200
C552        C  0.94851774  0.88356502  0.37841233     0.38100
C553        C  0.92950930  0.89957014  0.45078364     0.36600
C554        C  0.82504199  0.81093001  0.30803398     0.36600
N555        N  0.94795165  0.92522884  0.47562029    -0.38300
N556        N  0.80195974  0.79545468  0.27873144    -0.38300
N557        N  0.97645055  0.89781335  0.37744187    -0.37700
N558        N  0.77588705  0.82483763  0.37637101    -0.37700
C559        C  0.83173284  0.09327801  0.32795125    -0.04400
C560        C  0.79570157  0.07344263  0.30592135    -0.01500
C561        C  0.79112918  0.04176057  0.27190188     0.03500
C562        C  0.82102315  0.03311495  0.25736149    -0.04400
C563        C  0.85351759  0.05974614  0.27509845    -0.01500
C564        C  0.86140894  0.07813755  0.31549864     0.03500
C565        C  0.76549958  0.07807513  0.32266950     0.38200
C566        C  0.88061510  0.06780498  0.25469818     0.38100
C567        C  0.89462055  0.05853384  0.34770131     0.36600
C568        C  0.75664424  0.01665911  0.25322358     0.36600
N569        N  0.92004202  0.04038553  0.37319809    -0.38300
N570        N  0.72903525  0.99680246  0.23808575    -0.38300
N571        N  0.90314492  0.07773283  0.24034321    -0.37700
N572        N  0.74135193  0.08054243  0.33614059    -0.37700
C573        C  0.86216478  0.98279050  0.64019188    -0.04400
C574        C  0.88617336  0.94362571  0.65503464    -0.01500
C575        C  0.88506366  0.90658236  0.62646774     0.03500
C576        C  0.85851398  0.90789264  0.58410723    -0.04400
C577        C  0.82692672  0.93768714  0.57688478    -0.01500
C578        C  0.82974580  0.97664475  0.60295616     0.03500
C579        C  0.90788866  0.93861197  0.70032856     0.38200
C580        C  0.79282834  0.93153201  0.53999705     0.38100
C581        C  0.79828915  0.00923772  0.59127344     0.36600
C582        C  0.90667487  0.86467208  0.64257433     0.36600
N583        N  0.77279984  0.03457528  0.58114936    -0.38300
N584        N  0.92364051  0.83100784  0.65587413    -0.38300
N585        N  0.76550216  0.92731229  0.51071782    -0.37700
N586        N  0.92351366  0.93357921  0.73686608    -0.37700
C587        C  0.86136395  0.16936728  0.49766914    -0.04400
C588        C  0.88807352  0.14228459  0.53065231    -0.01500
C589        C  0.88908892  0.14566959  0.57308802     0.03500
C590        C  0.86576985  0.17820053  0.58302923    -0.04400
C591        C  0.84910690  0.21412730  0.55358620    -0.01500
C592        C  0.84808218  0.21046683  0.51077391     0.03500
C593        C  0.91435325  0.11071635  0.52151731     0.38200
C594        C  0.83573689  0.25565224  0.56816435     0.38100
C595        C  0.84133584  0.25149838  0.48404476     0.36600
C596        C  0.91394370  0.11565221  0.60644017     0.36600
N597        N  0.83687168  0.28478998  0.46335018    -0.38300
N598        N  0.93416013  0.09204664  0.63294471    -0.38300
N599        N  0.82546827  0.28902333  0.57997385    -0.37700
N600        N  0.93539275  0.08553902  0.51453173    -0.37700
C601        C  0.87691317  0.17193824  0.92265182    -0.04400
C602        C  0.90196510  0.13826039  0.91522052    -0.01500
C603        C  0.90802359  0.13618204  0.87586799     0.03500
C604        C  0.89034676  0.16867781  0.84263998    -0.04400
C605        C  0.87039762  0.20655309  0.85254159    -0.01500
C606        C  0.86475991  0.20871246  0.89270380     0.03500
C607        C  0.92265517  0.10527993  0.94874541     0.38200
C608        C  0.85607485  0.24426827  0.82206239     0.38100
C609        C  0.85137516  0.25146715  0.90499775     0.36600
C610        C  0.93222037  0.09923491  0.87025395     0.36600
N611        N  0.84182572  0.28668716  0.91437801    -0.38300
N612        N  0.95136326  0.06951692  0.86614953    -0.38300
N613        N  0.84457280  0.27448942  0.79788789    -0.37700
N614        N  0.93885232  0.07927758  0.97565494    -0.37700
C615        C  0.86861812  0.04133108  0.14511622    -0.04400
C616        C  0.90209890  0.05152051  0.13914150    -0.01500
C617        C  0.90199698  0.08337210  0.10705975     0.03500
C618        C  0.87034404  0.11373030  0.08651994    -0.04400
C619        C  0.83639169  0.10255491  0.09365825    -0.01500
C620        C  0.83617010  0.06804616  0.12383819     0.03500
C621        C  0.93542553  0.02369690  0.16125025     0.38200
C622        C  0.79988369  0.11629856  0.06338235     0.38100
C623        C  0.80144249  0.05764470  0.13073335     0.36600
C624        C  0.92925880  0.07305877  0.08688933     0.36600
N625        N  0.77360135  0.04956120  0.13580355    -0.38300
N626        N  0.95000709  0.06306602  0.06986993    -0.38300
N627        N  0.76995383  0.12462645  0.03948716    -0.37700
N628        N  0.96169872  0.00113174  0.17883157    -0.37700
C629        C  0.83532393  0.94815483  0.83119322    -0.04400
C630        C  0.82125544  0.93405476  0.78758343    -0.01500
C631        C  0.81248278  0.96822223  0.75417088     0.03500
C632        C  0.81475418  0.01579016  0.76466758    -0.04400
C633        C  0.82504759  0.02750553  0.80805635    -0.01500
C634        C  0.84509248  0.99476183  0.83834780     0.03500
C635        C  0.82439048  0.88615792  0.77709271     0.38200
C636        C  0.82129687  0.07487830  0.82023908     0.38100
C637        C  0.87561459  0.00834727  0.87637321     0.36600
C638        C  0.80341285  0.95463809  0.70987278     0.36600
N639        N  0.90051694  0.01619852  0.90733337    -0.38300
N640        N  0.79591156  0.94336618  0.67453261    -0.38300
N641        N  0.81694631  0.11266519  0.82888726    -0.37700
N642        N  0.82742164  0.84805737  0.76824484    -0.37700
C643        C  0.85011579  0.84779668  0.07755779    -0.04400
C644        C  0.88216977  0.83518301  0.06731931    -0.01500
C645        C  0.87998282  0.83534924  0.02386337     0.03500
C646        C  0.84848782  0.85582563  0.99193912    -0.04400
C647        C  0.81461639  0.85868538  0.00103574    -0.01500
C648        C  0.81535074  0.85224182  0.04322862     0.03500
C649        C  0.91716845  0.82154574  0.10058411     0.38200
C650        C  0.77883619  0.87001866  0.96767281     0.38100
C651        C  0.78009671  0.84979205  0.05089448     0.36600
C652        C  0.90582085  0.80660527  0.01143911     0.36600
N653        N  0.75201192  0.84745876  0.05690885    -0.38300
N654        N  0.92619911  0.78291615  0.00163326    -0.38300
N655        N  0.75029100  0.87900431  0.94122129    -0.37700
N656        N  0.94527916  0.81058003  0.12686514    -0.37700
C657        C  0.06633978  0.86077380  0.05928239    -0.04400
C658        C  0.07903500  0.82335113  0.08887528    -0.01500
C659        C  0.07360803  0.82421596  0.12931623     0.03500
C660        C  0.05023630  0.85856788  0.13814909    -0.04400
C661        C  0.03053800  0.88924797  0.10437738    -0.01500
C662        C  0.04083721  0.89343217  0.06782031     0.03500
C663        C  0.09299056  0.78116504  0.07639348     0.38200
C664        C  0.99832270  0.91606206  0.10590382     0.38100
C665        C  0.02357558  0.93197375  0.03883301     0.36600
C666        C  0.09126182  0.78854979  0.16100340     0.36600
N667        N  0.00960265  0.96279212  0.01630899    -0.38300
N668        N  0.10537176  0.76007674  0.18630276    -0.38300
N669        N  0.97244917  0.93715659  0.10656176    -0.37700
N670        N  0.10287822  0.74604213  0.06721844    -0.37700
C671        C  0.10770196  0.09954316  0.15538389    -0.04400
C672        C  0.07617257  0.08120471  0.16162078    -0.01500
C673        C  0.08040698  0.06056632  0.20040840     0.03500
C674        C  0.11314561  0.03385629  0.22089207    -0.04400
C675        C  0.14554829  0.04460166  0.21189615    -0.01500
C676        C  0.14345776  0.07969804  0.18093163     0.03500
C677        C  0.04742452  0.06105528  0.12521890     0.38200
C678        C  0.17980370  0.01787860  0.23204665     0.38100
C679        C  0.17663654  0.08824750  0.17060205     0.36600
C680        C  0.04890311  0.06390765  0.21488772     0.36600
N681        N  0.20353558  0.09367625  0.16269189    -0.38300
N682        N  0.02310639  0.06992580  0.22511764    -0.38300
N683        N  0.20715854  0.99647753  0.24799835    -0.37700
N684        N  0.02628528  0.04309185  0.09585581    -0.37700
C685        C  0.08031379  0.98838686  0.83563959    -0.04400
C686        C  0.05136944  0.95587893  0.82586939    -0.01500
C687        C  0.05233174  0.92042313  0.85609021     0.03500
C688        C  0.08143264  0.91896665  0.89709066    -0.04400
C689        C  0.11455394  0.94325034  0.90083416    -0.01500
C690        C  0.11374418  0.97816624  0.87084500     0.03500
C691        C  0.02165006  0.95807187  0.78436758     0.38200
C692        C  0.14905080  0.93519050  0.93720910     0.38100
C693        C  0.14790092  0.00320303  0.87655498     0.36600
C694        C  0.02621529  0.88291570  0.84289479     0.36600
N695        N  0.17542542  0.02263920  0.88156509    -0.38300
N696        N  0.00543084  0.85283688  0.83191666    -0.38300
N697        N  0.17662454  0.92941440  0.96616629    -0.37700
N698        N  0.99887833  0.96011092  0.75046456    -0.37700
C699        C  0.08811084  0.18051654  0.90133168    -0.04400
C700        C  0.12164684  0.18889195  0.93554735    -0.01500
C701        C  0.12336317  0.18330812  0.97829323     0.03500
C702        C  0.09016382  0.17620020  0.98812011    -0.04400
C703        C  0.05698860  0.16569371  0.95277399    -0.01500
C704        C  0.05529737  0.17122900  0.91004833     0.03500
C705        C  0.15530247  0.20072929  0.92680494     0.38200
C706        C  0.02798648  0.13801525  0.95901825     0.38100
C707        C  0.02041590  0.16217783  0.87500008     0.36600
C708        C  0.16030988  0.17420148  0.00982091     0.36600
N709        N  0.99287683  0.15533529  0.84671079    -0.38300
N710        N  0.19019122  0.16581746  0.03365137    -0.38300
N711        N  0.00546287  0.11437243  0.96350557    -0.37700
N712        N  0.18206149  0.21001805  0.91977858    -0.37700
C713        C  0.07537823  0.18761634  0.56505532    -0.04400
C714        C  0.04612271  0.21419144  0.57117608    -0.01500
C715        C  0.03723289  0.20767993  0.60861977     0.03500
C716        C  0.06259216  0.18344445  0.64389228    -0.04400
C717        C  0.09793266  0.16977810  0.64202834    -0.01500
C718        C  0.10412857  0.17134959  0.60257422     0.03500
C719        C  0.02974087  0.25319751  0.54310661     0.38200
C720        C  0.12787516  0.15263420  0.67980968     0.38100
C721        C  0.13969209  0.15496083  0.60066499     0.36600
C722        C  0.00206703  0.22540250  0.61051781     0.36600
N723        N  0.16813964  0.14137682  0.59977099    -0.38300
N724        N  0.97368765  0.23881803  0.61181910    -0.38300
N725        N  0.15298432  0.13877238  0.70869995    -0.37700
N726        N  0.01692767  0.28474147  0.52107463    -0.37700
C727        C  0.06846227  0.10859620  0.40127712    -0.04400
C728        C  0.10066907  0.09871334  0.39016483    -0.01500
C729        C  0.09842515  0.06862270  0.35618601     0.03500
C730        C  0.06651473  0.04157239  0.33771910    -0.04400
C731        C  0.03503071  0.04857913  0.34949135    -0.01500
C732        C  0.03703085  0.07871239  0.38331121     0.03500
C733        C  0.13809473  0.10771172  0.41984691     0.38200
C734        C  0.00183076  0.02114388  0.32988898     0.38100
C735        C  0.01205483  0.06873914  0.40662119     0.36600
C736        C  0.13022566  0.06344837  0.34191126     0.36600
N737        N  0.99363979  0.06005641  0.42680631    -0.38300
N738        N  0.15561517  0.06008074  0.33056170    -0.38300
N739        N  0.97520115  0.99964267  0.31425166    -0.37700
N740        N  0.16845040  0.11263834  0.44345405    -0.37700
C741        C  0.08919445  0.92832655  0.65425650    -0.04400
C742        C  0.06358532  0.96604706  0.64435629    -0.01500
C743        C  0.07493704  0.00763573  0.66572335     0.03500
C744        C  0.10553759  0.00877291  0.70614592    -0.04400
C745        C  0.12372296  0.96604615  0.72270470    -0.01500
C746        C  0.11521268  0.92565753  0.69679778     0.03500
C747        C  0.02939857  0.96621237  0.60635150     0.38200
C748        C  0.15113381  0.96316533  0.76576710     0.38100
C749        C  0.12499864  0.88084575  0.71720019     0.36600
C750        C  0.05629339  0.04876850  0.64177849     0.36600
N751        N  0.13209351  0.84517694  0.73422057    -0.38300
N752        N  0.04030253  0.07965610  0.62075491    -0.38300
N753        N  0.17325859  0.96039874  0.80006538    -0.37700
N754        N  0.00240797  0.96771695  0.57611132    -0.37700
C755        C  0.09221574  0.85191781  0.49291818    -0.04400
C756        C  0.06576240  0.82557709  0.46076917    -0.01500
C757        C  0.06418194  0.82791948  0.41737778     0.03500
C758        C  0.09251725  0.85080571  0.40675760    -0.04400
C759        C  0.12455834  0.86530261  0.44146796    -0.01500
C760        C  0.12383140  0.86743452  0.48350404     0.03500
C761        C  0.04517274  0.78976654  0.47267709     0.38200
C762        C  0.15902939  0.87800161  0.43499004     0.38100
C763        C  0.15582191  0.88733082  0.51678665     0.36600
C764        C  0.03401722  0.80516904  0.38434340     0.36600
N765        N  0.18122860  0.90356102  0.54295393    -0.38300
N766        N  0.00989874  0.78701210  0.35801537    -0.38300
N767        N  0.18662199  0.88805229  0.43020417    -0.37700
N768        N  0.02900104  0.76005409  0.48128305    -0.37700
C769        C  0.74704057  0.78586929  0.84229078    -0.04400
C770        C  0.71127476  0.80574066  0.82046417    -0.01500
C771        C  0.67979060  0.77747132  0.80334399     0.03500
C772        C  0.68303253  0.72911744  0.81119452    -0.04400
C773        C  0.71921046  0.70929867  0.83295809    -0.01500
C774        C  0.75095155  0.73755967  0.84762515     0.03500
C775        C  0.70637169  0.85555428  0.81788049     0.38200
C776        C  0.72429792  0.66004435  0.84174705     0.38100
C777        C  0.78790214  0.71690682  0.86868794     0.36600
C778        C  0.64440624  0.79848523  0.77651047     0.36600
N779        N  0.81732853  0.70037887  0.88566208    -0.38300
N780        N  0.61637335  0.81533682  0.75473616    -0.38300
N781        N  0.72863053  0.62080117  0.84882803    -0.37700
N782        N  0.70252874  0.89531651  0.81612119    -0.37700
C783        C  0.68549245  0.73374545  0.48337967    -0.04400
C784        C  0.68691922  0.77603155  0.46303866    -0.01500
C785        C  0.72184521  0.79519069  0.46681827     0.03500
C786        C  0.75570577  0.77266327  0.49167343    -0.04400
C787        C  0.75437610  0.73017753  0.51184980    -0.01500
C788        C  0.71934193  0.71065077  0.50758090     0.03500
C789        C  0.65225036  0.80018624  0.43906489     0.38200
C790        C  0.78914002  0.70682408  0.53684638     0.38100
C791        C  0.71787571  0.66705601  0.52829145     0.36600
C792        C  0.72319387  0.83843650  0.44549404     0.36600
N793        N  0.71667863  0.63221316  0.54485682    -0.38300
N794        N  0.72433592  0.87284225  0.42824491    -0.38300
N795        N  0.81697401  0.68814961  0.55671760    -0.37700
N796        N  0.62453074  0.81962757  0.42013478    -0.37700
C797        C  0.56954078  0.68702865  0.56148266    -0.04400
C798        C  0.53525524  0.67832477  0.56821459    -0.01500
C799        C  0.52947931  0.69232117  0.60563429     0.03500
C800        C  0.56019168  0.69794910  0.64343808    -0.04400
C801        C  0.59632146  0.70010152  0.64010451    -0.01500
C802        C  0.60106786  0.69471239  0.59948475     0.03500
C803        C  0.51076680  0.64287258  0.54357702     0.38200
C804        C  0.62901365  0.70521706  0.67859205     0.38100
C805        C  0.63873738  0.68802645  0.59930514     0.36600
C806        C  0.49174049  0.69946144  0.60540673     0.36600
N807        N  0.66928965  0.68164648  0.60086697    -0.38300
N808        N  0.46185714  0.70770726  0.60515887    -0.38300
N809        N  0.65557815  0.70955818  0.70877057    -0.37700
N810        N  0.49355493  0.61319731  0.52334310    -0.37700
C811        C  0.76070627  0.21858559  0.66505075    -0.04400
C812        C  0.74825649  0.23483216  0.62244238    -0.01500
C813        C  0.71979910  0.26871955  0.60857894     0.03500
C814        C  0.69824601  0.28047547  0.63445736    -0.04400
C815        C  0.70743247  0.25838798  0.67521536    -0.01500
C816        C  0.73992489  0.22969968  0.69141604     0.03500
C817        C  0.76156101  0.21327986  0.59098379     0.38200
C818        C  0.68213916  0.26177713  0.69900157     0.38100
C819        C  0.75133838  0.21044171  0.73450816     0.36600
C820        C  0.71415684  0.29097580  0.56765766     0.36600
N821        N  0.76058320  0.19502504  0.76890209    -0.38300
N822        N  0.71156439  0.30639547  0.53457406    -0.38300
N823        N  0.66181003  0.26310172  0.71795769    -0.37700
N824        N  0.76952924  0.19575459  0.56407448    -0.37700
C825        C  0.60964453  0.52038061  0.70453496    -0.04400
C826        C  0.63138707  0.47952381  0.71955125    -0.01500
C827        C  0.62284452  0.43800503  0.69516911     0.03500
C828        C  0.59427186  0.43766925  0.65401672    -0.04400
C829        C  0.56845554  0.47564699  0.64363855    -0.01500
C830        C  0.57844817  0.51743712  0.66529437     0.03500
C831        C  0.66446394  0.48055612  0.75800139     0.38200
C832        C  0.53539362  0.47658895  0.60440995     0.38100
C833        C  0.55776141  0.55786601  0.64271868     0.36600
C834        C  0.63741299  0.39489502  0.71679245     0.36600
N835        N  0.54014259  0.58859832  0.62336804    -0.38300
N836        N  0.64832873  0.36120116  0.73627998    -0.38300
N837        N  0.50984569  0.47931556  0.57274878    -0.37700
N838        N  0.69177087  0.48089813  0.78777756    -0.37700
C839        C  0.67568501  0.30373452  0.30970450    -0.04400
C840        C  0.66920733  0.25780285  0.32011263    -0.01500
C841        C  0.69948065  0.22629714  0.33692979     0.03500
C842        C  0.73623441  0.24021221  0.34366470    -0.04400
C843        C  0.74278893  0.28517452  0.33212663    -0.01500
C844        C  0.71266242  0.31705467  0.31536203     0.03500
C845        C  0.63185550  0.24335338  0.31639709     0.38200
C846        C  0.78082826  0.29844097  0.33827610     0.38100
C847        C  0.71973488  0.36342845  0.30394255     0.36600
C848        C  0.69305850  0.17982472  0.34870909     0.36600
N849        N  0.72529882  0.40050620  0.29488165    -0.38300
N850        N  0.68738734  0.14293721  0.35811540    -0.38300
N851        N  0.81129194  0.30877296  0.34322364    -0.37700
N852        N  0.60225877  0.23142801  0.31376003    -0.37700
C853        C  0.55656582  0.60673581  0.39702032    -0.04400
C854        C  0.56749434  0.61808168  0.36184235    -0.01500
C855        C  0.56499192  0.58455183  0.32998749     0.03500
C856        C  0.55127751  0.54017335  0.33307834    -0.04400
C857        C  0.53258540  0.53289563  0.36194312    -0.01500
C858        C  0.53377572  0.56659981  0.39272122     0.03500
C859        C  0.57612580  0.66527755  0.35511822     0.38200
C860        C  0.51278088  0.49023394  0.36058021     0.38100
C861        C  0.51314847  0.55781852  0.42140643     0.36600
C862        C  0.57223981  0.59706847  0.29153004     0.36600
N863        N  0.49705330  0.55012182  0.44439204    -0.38300
N864        N  0.57624811  0.60800336  0.25995595    -0.38300
N865        N  0.49647978  0.45660140  0.35923770    -0.37700
N866        N  0.58218111  0.70315546  0.34889602    -0.37700
C867        C  0.58865371  0.35368234  0.40385702    -0.04400
C868        C  0.55427573  0.35551249  0.41064345    -0.01500
C869        C  0.55335574  0.36520405  0.45190062     0.03500
C870        C  0.58691627  0.36313332  0.48881395    -0.04400
C871        C  0.62144891  0.36344681  0.48083170    -0.01500
C872        C  0.62226271  0.35602270  0.43930617     0.03500
C873        C  0.51957748  0.35277228  0.37415079     0.38200
C874        C  0.65490126  0.38233744  0.51243707     0.38100
C875        C  0.65792971  0.35415067  0.43245364     0.36600
C876        C  0.52024898  0.38973647  0.45307598     0.36600
N877        N  0.68630412  0.35254952  0.42694832    -0.38300
N878        N  0.49376721  0.41023001  0.45272471    -0.38300
N879        N  0.68092631  0.39910160  0.53721157    -0.37700
N880        N  0.49190732  0.35044827  0.34505518    -0.37700
C881        C  0.68266716  0.29198253  0.97974286    -0.04400
C882        C  0.68522993  0.25471980  0.95339400    -0.01500
C883        C  0.72065010  0.23465008  0.95702509     0.03500
C884        C  0.75432681  0.25111627  0.98751029    -0.04400
C885        C  0.75179812  0.28887022  0.01334962    -0.01500
C886        C  0.71644537  0.30960666  0.00901311     0.03500
C887        C  0.65107205  0.23641346  0.92300400     0.38200
C888        C  0.78596444  0.30703289  0.04384670     0.38100
C889        C  0.71496915  0.35069133  0.03308588     0.36600
C890        C  0.72232600  0.19606697  0.93013536     0.36600
N891        N  0.71389549  0.38386369  0.05195902    -0.38300
N892        N  0.72368320  0.16538274  0.90848504    -0.38300
N893        N  0.81338115  0.32128335  0.06824541    -0.37700
N894        N  0.62370743  0.22189633  0.89873092    -0.37700
C895        C  0.56376428  0.36584871  0.05376075    -0.04400
C896        C  0.53983029  0.40012518  0.06280254    -0.01500
C897        C  0.53280748  0.39964574  0.10151009     0.03500
C898        C  0.55031753  0.36661167  0.13391114    -0.04400
C899        C  0.57058148  0.32957170  0.12374473    -0.01500
C900        C  0.57601119  0.32834357  0.08325469     0.03500
C901        C  0.52074816  0.43622651  0.03162850     0.38200
C902        C  0.58698814  0.29342290  0.15527804     0.38100
C903        C  0.59062681  0.28656395  0.07088587     0.36600
C904        C  0.50872534  0.43558736  0.10869706     0.36600
N905        N  0.60124383  0.25207237  0.06139284    -0.38300
N906        N  0.49097299  0.46533256  0.11528596    -0.38300
N907        N  0.60018397  0.26449270  0.18040768    -0.37700
N908        N  0.50510797  0.46420350  0.00645296    -0.37700
C909        C  0.56943493  0.42855878  0.88978387    -0.04400
C910        C  0.60459123  0.44073326  0.88610404    -0.01500
C911        C  0.60617933  0.47440778  0.85581660     0.03500
C912        C  0.57309470  0.49530573  0.82710580    -0.04400
C913        C  0.53851277  0.48098883  0.82813316    -0.01500
C914        C  0.53754783  0.45538021  0.86380931     0.03500
C915        C  0.64003172  0.42846223  0.91951952     0.38200
C916        C  0.50398181  0.49926646  0.79696321     0.38100
C917        C  0.50980500  0.47168314  0.88136941     0.36600
C918        C  0.64247738  0.49122130  0.85764380     0.36600
N919        N  0.48800146  0.48582855  0.89547335    -0.38300
N920        N  0.67166097  0.50510751  0.86089829    -0.38300
N921        N  0.47640322  0.51332286  0.77175932    -0.37700
N922        N  0.66877555  0.42071704  0.94611950    -0.37700
C923        C  0.76339960  0.80637507  0.17712709    -0.04400
C924        C  0.76990820  0.75762381  0.17835463    -0.01500
C925        C  0.73991534  0.72758960  0.16028328     0.03500
C926        C  0.70323027  0.74528235  0.14191268    -0.04400
C927        C  0.69590402  0.79267038  0.14476997    -0.01500
C928        C  0.72572862  0.82320137  0.16290971     0.03500
C929        C  0.80706051  0.73736752  0.19937501     0.38200
C930        C  0.65736525  0.80956468  0.12994167     0.38100
C931        C  0.71708400  0.87132927  0.16780106     0.36600
C932        C  0.74664534  0.67816579  0.15999679     0.36600
N933        N  0.71002825  0.90955123  0.17225521    -0.38300
N934        N  0.75176078  0.63867588  0.16002004    -0.38300
N935        N  0.62660718  0.82304370  0.11836113    -0.37700
N936        N  0.83650278  0.72089113  0.21638377    -0.37700
C937        C  0.61108163  0.58633224  0.15334797    -0.04400
C938        C  0.62982334  0.59785064  0.19714079    -0.01500
C939        C  0.63844305  0.56247947  0.22940785     0.03500
C940        C  0.62942437  0.51609525  0.21775892    -0.04400
C941        C  0.61317167  0.50599888  0.17435198    -0.01500
C942        C  0.59640122  0.54142381  0.14528149     0.03500
C943        C  0.63135256  0.64550040  0.21020805     0.38200
C944        C  0.61437340  0.45905167  0.16041788     0.38100
C945        C  0.56455095  0.53181639  0.10708798     0.36600
C946        C  0.65584931  0.57342299  0.27447570     0.36600
N947        N  0.53868282  0.52684686  0.07634178    -0.38300
N948        N  0.66987488  0.58203346  0.31051218    -0.38300
N949        N  0.61834401  0.42168009  0.15051515    -0.37700
N950        N  0.63192396  0.68340942  0.22130615    -0.37700
C951        C  0.58512778  0.67841761  0.90290222    -0.04400
C952        C  0.56205711  0.64609111  0.91251341    -0.01500
C953        C  0.56006639  0.64430107  0.95386111     0.03500
C954        C  0.58339443  0.67329062  0.98671413    -0.04400
C955        C  0.59732996  0.71302429  0.97326641    -0.01500
C956        C  0.60079006  0.71397269  0.93226420     0.03500
C957        C  0.54201581  0.61301670  0.88034412     0.38200
C958        C  0.59893143  0.75576972  0.99606076     0.38100
C959        C  0.61999874  0.75141234  0.92030657     0.36600
C960        C  0.53673783  0.60953356  0.96306510     0.36600
N961        N  0.63561533  0.78117999  0.91092154    -0.38300
N962        N  0.51881789  0.58108692  0.97044536    -0.38300
N963        N  0.59913646  0.79033411  0.01351194    -0.37700
N964        N  0.52628173  0.58702318  0.85418908    -0.37700
C965        C  0.26510525  0.72833757  0.68354490    -0.04400
C966        C  0.26877085  0.77629230  0.67779518    -0.01500
C967        C  0.23655134  0.80424164  0.65910030     0.03500
C968        C  0.20080954  0.78494405  0.64723109    -0.04400
C969        C  0.19687892  0.73860686  0.65734323    -0.01500
C970        C  0.22900021  0.71022967  0.67573822     0.03500
C971        C  0.30540064  0.79707554  0.68991989     0.38200
C972        C  0.15972248  0.72064580  0.64916944     0.38100
C973        C  0.22495082  0.66302706  0.68799520     0.36600
C974        C  0.23985172  0.85283112  0.65083164     0.36600
N975        N  0.22168861  0.62557172  0.69822649    -0.38300
N976        N  0.24233316  0.89166829  0.64425245    -0.38300
N977        N  0.13007023  0.70635722  0.64292063    -0.37700
N978        N  0.33456717  0.81389014  0.70009262    -0.37700
C979        C  0.25742038  0.73507853  0.00354042    -0.04400
C980        C  0.22339093  0.72018840  0.97288985    -0.01500
C981        C  0.18900580  0.74407874  0.96733921     0.03500
C982        C  0.18794382  0.78251386  0.99313635    -0.04400
C983        C  0.22194717  0.79696194  0.02419523    -0.01500
C984        C  0.25638080  0.77365643  0.02911897     0.03500
C985        C  0.22375753  0.67931790  0.94809833     0.38200
C986        C  0.22157345  0.83696921  0.05004431     0.38100
C987        C  0.29118488  0.79021127  0.05967555     0.36600
C988        C  0.15444520  0.72884763  0.93537117     0.36600
N989        N  0.31905206  0.80349075  0.08396788    -0.38300
N990        N  0.12680592  0.71685113  0.90970097    -0.38300
N991        N  0.22110581  0.86894560  0.07064084    -0.37700
N992        N  0.22408677  0.64639445  0.92859796    -0.37700
C993        C  0.37977066  0.67124840  0.93290884    -0.04400
C994        C  0.36491731  0.70698907  0.90205535    -0.01500
C995        C  0.36895216  0.70456953  0.86090079     0.03500
C996        C  0.39080148  0.66870570  0.85166685    -0.04400
C997        C  0.41108577  0.63852070  0.88500285    -0.01500
C998        C  0.40487087  0.63837206  0.92408603     0.03500
C999        C  0.34906481  0.74835767  0.91344114     0.38200
C1000       C  0.43822509  0.60611693  0.87873588     0.38100
C1001       C  0.42530437  0.60307442  0.95491782     0.36600
C1002       C  0.34975082  0.73827964  0.82792964     0.36600
N1003       N  0.44239168  0.57440717  0.97811490    -0.38300
N1004       N  0.33433496  0.76530604  0.80169185    -0.38300
N1005       N  0.45909057  0.57972869  0.87318767    -0.37700
N1006       N  0.33743471  0.78263484  0.92202511    -0.37700
C1007       C  0.23946174  0.28689905  0.83955089    -0.04400
C1008       C  0.20263748  0.30462169  0.82268310    -0.01500
C1009       C  0.17240765  0.27491972  0.80417717     0.03500
C1010       C  0.17849616  0.22611365  0.80467404    -0.04400
C1011       C  0.21614645  0.20889376  0.81950589    -0.01500
C1012       C  0.24630919  0.23930270  0.83707261     0.03500
C1013       C  0.19580352  0.35353515  0.82663073     0.38200
C1014       C  0.22446316  0.16015395  0.81716796     0.38100
C1015       C  0.28467365  0.22180897  0.85310402     0.36600
C1016       C  0.13523842  0.29562659  0.78454696     0.36600
N1017       N  0.31532763  0.20794237  0.86606390    -0.38300
N1018       N  0.10574332  0.31251420  0.76906129    -0.38300
N1019       N  0.23133223  0.12135601  0.81510478    -0.37700
N1020       N  0.19047830  0.39251307  0.83010340    -0.37700
C1021       C  0.33013141  0.44898185  0.83076633    -0.04400
C1022       C  0.34258845  0.49484070  0.83810945    -0.01500
C1023       C  0.32328308  0.52930870  0.80906042     0.03500
C1024       C  0.30844521  0.51851734  0.76558198    -0.04400
C1025       C  0.30259948  0.47137701  0.75435731    -0.01500
C1026       C  0.31237934  0.43641024  0.78708142     0.03500
C1027       C  0.37505884  0.50632095  0.87500501     0.38200
C1028       C  0.28829552  0.45918435  0.70932948     0.38100
C1029       C  0.31311843  0.38867524  0.77487590     0.36600
C1030       C  0.32236851  0.57667879  0.82239446     0.36600
N1031       N  0.31430582  0.35070888  0.76459398    -0.38300
N1032       N  0.31944220  0.61444136  0.83207942    -0.38300
N1033       N  0.27675310  0.44945865  0.67335447    -0.37700
N1034       N  0.40137952  0.51401913  0.90452462    -0.37700
C1035       C  0.19825774  0.25286107  0.14411347    -0.04400
C1036       C  0.19396120  0.29794021  0.15727797    -0.01500
C1037       C  0.22559394  0.32615183  0.17463258     0.03500
C1038       C  0.26207888  0.30863996  0.17996469    -0.04400
C1039       C  0.26609418  0.26216498  0.16845318    -0.01500
C1040       C  0.23424229  0.23500994  0.14990884     0.03500
C1041       C  0.15672538  0.31509203  0.15244046     0.38200
C1042       C  0.30265044  0.24222657  0.17335277     0.38100
C1043       C  0.23846538  0.18904581  0.13498321     0.36600
C1044       C  0.22014607  0.37306193  0.18666793     0.36600
N1045       N  0.24295300  0.15273894  0.12302668    -0.38300
N1046       N  0.21530501  0.41050377  0.19588656    -0.38300
N1047       N  0.33163878  0.22588405  0.17732012    -0.37700
N1048       N  0.12696782  0.32862901  0.14872010    -0.37700
C1049       C  0.38977700  0.53529018  0.16101132    -0.04400
C1050       C  0.37574733  0.58023908  0.16396099    -0.01500
C1051       C  0.37402125  0.61447877  0.13257052     0.03500
C1052       C  0.38657506  0.60358121  0.09838447    -0.04400
C1053       C  0.40766443  0.56115232  0.10207156    -0.01500
C1054       C  0.40544306  0.52592693  0.12983789     0.03500
C1055       C  0.36212991  0.59064056  0.19859565     0.38200
C1056       C  0.43084469  0.55166269  0.07652411     0.38100
C1057       C  0.41389310  0.47832958  0.12207844     0.36600
C1058       C  0.36304856  0.66127469  0.13831092     0.36600
N1059       N  0.41889832  0.43999226  0.11563007    -0.38300
N1060       N  0.35483207  0.69866852  0.14405707    -0.38300
N1061       N  0.45075908  0.54286623  0.05812331    -0.37700
N1062       N  0.35139421  0.59902089  0.22633536    -0.37700
C1063       C  0.34321222  0.35993904  0.07854127    -0.04400
C1064       C  0.30925656  0.37015619  0.04470716    -0.01500
C1065       C  0.30777074  0.36932617  0.00175822     0.03500
C1066       C  0.34063288  0.35830139  0.99194331    -0.04400
C1067       C  0.37048167  0.33606556  0.02461230    -0.01500
C1068       C  0.37303555  0.33948148  0.06815720     0.03500
C1069       C  0.27552474  0.38121991  0.05398410     0.38200
C1070       C  0.39364333  0.30234687  0.01318228     0.38100
C1071       C  0.40664014  0.32262216  0.10183983     0.36600
C1072       C  0.27286841  0.38344516  0.96819362     0.36600
N1073       N  0.43358927  0.30917371  0.12859952    -0.38300
N1074       N  0.24522631  0.39539011  0.94164438    -0.38300
N1075       N  0.41165005  0.27427069  0.00440643    -0.37700
N1076       N  0.24860789  0.38967721  0.06138183    -0.37700
C1077       C  0.25040573  0.29372997  0.49823333    -0.04400
C1078       C  0.21578747  0.31405020  0.47255244    -0.01500
C1079       C  0.18148947  0.29228814  0.46815841     0.03500
C1080       C  0.18150271  0.24991959  0.48926356    -0.04400
C1081       C  0.21621660  0.22943702  0.51456800    -0.01500
C1082       C  0.25038333  0.25163474  0.51963863     0.03500
C1083       C  0.21557065  0.35790299  0.45153425     0.38200
C1084       C  0.21680763  0.18434903  0.53367126     0.38100
C1085       C  0.28578230  0.23122577  0.54680062     0.36600
C1086       C  0.14606372  0.31341716  0.44209892     0.36600
N1087       N  0.31407825  0.21512531  0.56872481    -0.38300
N1088       N  0.11775474  0.33036981  0.42125189    -0.38300
N1089       N  0.21767345  0.14794692  0.54844394    -0.37700
N1090       N  0.21515382  0.39319142  0.43495538    -0.37700
C1091       C  0.37227843  0.34760972  0.34113471    -0.04400
C1092       C  0.39479336  0.31849725  0.37482968    -0.01500
C1093       C  0.38610553  0.31375307  0.41293443     0.03500
C1094       C  0.35795344  0.34216758  0.41942260    -0.04400
C1095       C  0.32995792  0.35932956  0.38177936    -0.01500
C1096       C  0.33757474  0.36346088  0.34324438     0.03500
C1097       C  0.42635999  0.29330034  0.37057298     0.38200
C1098       C  0.29308680  0.37168771  0.38226949     0.38100
C1099       C  0.30882271  0.38251307  0.30552583     0.36600
C1100       C  0.40174875  0.27540607  0.44214002     0.36600
N1101       N  0.28453661  0.39694182  0.27614721    -0.38300
N1102       N  0.41379637  0.24445846  0.46526185    -0.38300
N1103       N  0.26335790  0.38130043  0.38185165    -0.37700
N1104       N  0.45147382  0.27237991  0.36761586    -0.37700
C1105       C  0.38309728  0.49248388  0.65004422    -0.04400
C1106       C  0.38634355  0.50376480  0.61087380    -0.01500
C1107       C  0.39254029  0.46881104  0.58582800     0.03500
C1108       C  0.37480232  0.42575729  0.58497421    -0.04400
C1109       C  0.36901614  0.41304031  0.62354739    -0.01500
C1110       C  0.37617458  0.44589517  0.65755369     0.03500
C1111       C  0.36446306  0.54285211  0.58826511     0.38200
C1112       C  0.35911448  0.36646921  0.63014790     0.38100
C1113       C  0.37548759  0.43266172  0.69925296     0.36600
C1114       C  0.41313922  0.47970783  0.55785333     0.36600
N1115       N  0.37594401  0.42227590  0.73307647    -0.38300
N1116       N  0.42931891  0.48674058  0.53488917    -0.38300
N1117       N  0.35136672  0.32929885  0.63630973    -0.37700
N1118       N  0.34267493  0.57127793  0.57125318    -0.37700
C1119       C  0.24212442  0.75280554  0.34616956    -0.04400
C1120       C  0.20980979  0.74281611  0.35542930    -0.01500
C1121       C  0.17783896  0.77136179  0.33921611     0.03500
C1122       C  0.17720062  0.80876542  0.31100187    -0.04400
C1123       C  0.20873719  0.81617602  0.29892266    -0.01500
C1124       C  0.24151579  0.78891842  0.31743840     0.03500
C1125       C  0.20944161  0.70242855  0.38130996     0.38200
C1126       C  0.20706215  0.85050730  0.26641820     0.38100
C1127       C  0.27504162  0.79861877  0.30801972     0.36600
C1128       C  0.14647752  0.76238973  0.35332803     0.36600
N1129       N  0.30194124  0.80635640  0.30071902    -0.38300
N1130       N  0.12178274  0.75454229  0.36482859    -0.38300
N1131       N  0.20544444  0.87752504  0.24006895    -0.37700
N1132       N  0.20922182  0.67018233  0.40187296    -0.37700
C1133       C  0.32483216  0.51423527  0.28640106    -0.04400
C1134       C  0.35666248  0.52282037  0.32273945    -0.01500
C1135       C  0.36594804  0.56818997  0.33378644     0.03500
C1136       C  0.33689330  0.60095484  0.33027610    -0.04400
C1137       C  0.30008021  0.58758331  0.30160751    -0.01500
C1138       C  0.29623192  0.54817066  0.27485908     0.03500
C1139       C  0.38165540  0.48629530  0.34741114     0.38200
C1140       C  0.26565864  0.60743068  0.30351484     0.38100
C1141       C  0.26276472  0.54149902  0.23766162     0.36600
C1142       C  0.40541428  0.57764204  0.34926913     0.36600
N1143       N  0.23618293  0.53616683  0.20768073    -0.38300
N1144       N  0.43748889  0.58162638  0.35931011    -0.38300
N1145       N  0.23726706  0.62112871  0.30461005    -0.37700
N1146       N  0.40246415  0.45945872  0.36954737    -0.37700
C1147       C  0.36071535  0.67398124  0.50133622    -0.04400
C1148       C  0.34520455  0.71301022  0.51535565    -0.01500
C1149       C  0.34335607  0.71311806  0.55724541     0.03500
C1150       C  0.36331658  0.67919771  0.58730964    -0.04400
C1151       C  0.38926305  0.65073049  0.57737327    -0.01500
C1152       C  0.38673954  0.64626556  0.53427533     0.03500
C1153       C  0.34033934  0.75648148  0.49245318     0.38200
C1154       C  0.41748056  0.62473171  0.61140551     0.38100
C1155       C  0.40902914  0.61069426  0.52378292     0.36600
C1156       C  0.32209428  0.74856608  0.56981006     0.36600
N1157       N  0.42500526  0.58116872  0.51394590    -0.38300
N1158       N  0.30526534  0.77682156  0.58018873    -0.38300
N1159       N  0.44019844  0.60446975  0.63857545    -0.37700
N1160       N  0.33729845  0.79193498  0.47525909    -0.37700
loop_ 
_geom_bond_atom_site_label_1 
_geom_bond_atom_site_label_2 
_geom_bond_distance 
_geom_bond_site_symmetry_2 
_ccdc_geom_bond_type 
C1            C3   1.538       .  S
C1            C5   1.530       .  S
C1            C4   1.557       .  S
C1         C1136   1.550       .  S
C2            C6   1.544       .  S
C2            C8   1.559       .  S
C2            C7   1.538       .  S
C2         C1147   1.561       .  S
C3           C11   1.387       .  A
C3            C6   1.377       .  A
C4           C15   1.390       .  A
C4            C7   1.395       .  A
C5           C19   1.368       .  A
C5            C8   1.412       .  A
C6            C9   1.385       .  A
C7           C13   1.379       .  A
C8           C16   1.377       .  A
C9           N10   1.361       .  A
C9           H22   1.040       .  S
N10          C11   1.345       .  A
N10          N33   1.418       .  S
C11          H12   1.076       .  S
C13          N14   1.358       .  A
C13          H23   1.081       .  S
N14          C15   1.360       .  A
N14         N244   1.419       .  S
C15          H21   1.081       .  S
C16          N17   1.356       .  A
C16          H18   1.079       .  S
N17          C19   1.348       .  A
N17        C1119   1.431       .  S
C19          H20   1.082       .  S
C24          C26   1.550       .  S
C24          C28   1.547       .  S
C24          C27   1.565       .  S
C24        C1094   1.563       .  S
C25          C29   1.545       .  S
C25          C31   1.536       .  S
C25          C30   1.553       .  S
C25        C1108   1.556       .  S
C26          C34   1.393       .  A
C26          C29   1.381       .  A
C27          C38   1.385       .  A
C27          C30   1.424       .  A
C28          C42   1.384       .  A
C28          C31   1.386       .  A
C29          C32   1.380       .  A
C30          C36   1.389       .  A
C31          C39   1.385       .  A
C32          N33   1.349       .  A
C32          H45   1.074       .  S
N33          C34   1.364       .  A
C34          H35   1.079       .  S
C36          N37   1.359       .  A
C36          H46   1.081       .  S
N37          C38   1.359       .  A
N37        C1077   1.451       .  S
C38          H44   1.082       .  S
C39          N40   1.355       .  A
C39          H41   1.081       .  S
N40          C42   1.361       .  A
N40         N218   1.418       .  S
C42          H43   1.078       .  S
O47          C62   1.269       .  A
O47         Al55   1.909       .  S
C48          O58   1.266       .  A
C48          O49   1.277       .  A
C48        C1091   1.505       .  S
O49         Al51   1.973       .  S
O50          C52   1.257       .  A
O50         Al51   1.890       .  S
Al51         O59   1.936       .  S
Al51         O61   1.916       .  S
Al51         O60   1.783       .  S
C52          O65   1.256       .  A
C52        C1038   1.495       .  S
O53          C63   1.268       .  A
O53         Al55   1.972       .  S
O54          C67   1.279       .  A
O54         Al64   1.915       .  S
Al55         O68   1.915       .  S
Al55         O65   1.891       .  S
Al55         O60   1.785       .  S
O56          C63   1.240       .  A
O56         Al64   1.822       .  S
O57          C66   1.241       .  A
O57         Al64   1.869       .  S
O58         Al64   1.897       .  S
O59          C66   1.255       .  A
O60         Al64   1.771       .  S
O61          C62   1.266       .  A
C62        C1063   1.499       .  S
C63        C1133   1.477       .  S
C66         C202   1.463       .  S
C67          O68   1.268       .  A
C67        C1049   1.470       .  S
C69          C71   1.527       .  S
C69          C73   1.543       .  S
C69          C72   1.555       .  S
C69        C1066   1.558       .  S
C70          C74   1.554       .  S
C70          C76   1.544       .  S
C70          C75   1.559       .  S
C70        C1021   1.555       .  S
C71          C79   1.381       .  A
C71          C74   1.375       .  A
C72          C83   1.380       .  A
C72          C75   1.407       .  A
C73          C87   1.375       .  A
C73          C76   1.403       .  A
C74          C77   1.385       .  A
C75          C81   1.393       .  A
C76          C84   1.381       .  A
C77          N78   1.352       .  A
C77          H90   1.077       .  S
N78          C79   1.353       .  A
N78         N101   1.411       .  S
C79          H80   1.082   1_556  S
C81          N82   1.363       .  A
C81          H91   1.082       .  S
N82          C83   1.363       .  A
N82         N176   1.424       .  S
C83          H89   1.073       .  S
C84          N85   1.357       .  A
C84          H86   1.079       .  S
N85          C87   1.354       .  A
N85        C1007   1.439       .  S
C87          H88   1.082       .  S
C92          C94   1.530       .  S
C92          C96   1.531       .  S
C92          C95   1.582       .  S
C92        C1052   1.554       .  S
C93          C97   1.530       .  S
C93          C99   1.532   1_556  S
C93          C98   1.574       .  S
C93         C993   1.569       .  S
C94         C102   1.383       .  A
C94          C97   1.372   1_554  A
C95         C106   1.394       .  A
C95          C98   1.444   1_554  A
C96         C110   1.389       .  A
C96          C99   1.374       .  A
C97         C100   1.376       .  A
C98         C104   1.394       .  A
C99         C107   1.373       .  A
C100        N101   1.357       .  A
C100        H113   1.078       .  S
N101        C102   1.354   1_556  A
C102        H103   1.082       .  S
C104        N105   1.360   1_556  A
C104        H114   1.079       .  S
N105        C106   1.359       .  A
N105        C979   1.460       .  S
C106        H112   1.080       .  S
C107        N108   1.355       .  A
C107        H109   1.080   1_554  S
N108        C110   1.358       .  A
N108        N150   1.414       .  S
C110        H111   1.081       .  S
O115        C130   1.260       .  A
O115       Al123   1.913       .  S
C116        O126   1.264       .  A
C116        O117   1.266       .  A
C116        C996   1.501       .  S
O117       Al119   1.886       .  S
O118        C120   1.256       .  A
O118       Al119   1.874       .  S
Al119       O127   1.887       .  S
Al119       O129   1.914       .  S
Al119       O128   1.778       .  S
C120        O133   1.265       .  A
C120       C1024   1.470       .  S
O121        C131   1.252       .  A
O121       Al123   1.882       .  S
O122        C135   1.266       .  A
O122       Al132   1.924       .  S
Al123       O136   1.890       .  S
Al123       O133   1.929       .  S
Al123       O128   1.797       .  S
O124        C131   1.250       .  A
O124       Al132   1.881       .  S
O125        C134   1.254       .  A
O125       Al132   1.921       .  S
O126       Al132   1.926       .  S
O127        C134   1.254       .  A
O128       Al132   1.817       .  S
O129        C130   1.265       .  A
C130       C1105   1.481       .  S
C131        C965   1.483       .  S
C134        C270   1.480       .  S
C135        O136   1.266       .  A
C135       C1150   1.482       .  S
C137        C139   1.551       .  S
C137        C141   1.547       .  S
C137        C140   1.543       .  S
C137        C937   1.553       .  S
C138        C142   1.539       .  S
C138        C144   1.557       .  S
C138        C143   1.522       .  S
C138        C954   1.547   1_554  S
C139        C147   1.382       .  A
C139        C142   1.380       .  A
C140        C151   1.388       .  A
C140        C143   1.385       .  A
C141        C155   1.374       .  A
C141        C144   1.421       .  A
C142        C145   1.387       .  A
C143        C149   1.366       .  A
C144        C152   1.380       .  A
C145        N146   1.354       .  A
C145        H158   1.079   1_554  S
N146        C147   1.352       .  A
N146        N169   1.415       .  S
C147        H148   1.077       .  S
C149        N150   1.356       .  A
C149        H159   1.080       .  S
N150        C151   1.364       .  A
C151        H157   1.081       .  S
C152        N153   1.353       .  A
C152        H154   1.078       .  S
N153        C155   1.350       .  A
N153        C926   1.434       .  S
C155        H156   1.078       .  S
C160        C162   1.527       .  S
C160        C164   1.543   1_554  S
C160        C163   1.570   1_554  S
C160        C895   1.569       .  S
C161        C165   1.535       .  S
C161        C167   1.562       .  S
C161        C166   1.580       .  S
C161        C909   1.564       .  S
C162        C170   1.376       .  A
C162        C165   1.371   1_554  A
C163        C174   1.399   1_556  A
C163        C166   1.425       .  A
C164        C178   1.377       .  A
C164        C167   1.387       .  A
C165        C168   1.387       .  A
C166        C172   1.389       .  A
C167        C175   1.407       .  A
C168        N169   1.357   1_556  A
C168        H181   1.081       .  S
N169        C170   1.357       .  A
C170        H171   1.077       .  S
C172        N173   1.360       .  A
C172        H182   1.082       .  S
N173        C174   1.367   1_556  A
N173        C881   1.466       .  S
C174        H180   1.080       .  S
C175        N176   1.365       .  A
C175        H177   1.080       .  S
N176        C178   1.351       .  A
C178        H179   1.080       .  S
O183        C198   1.264       .  A
O183       Al191   1.873       .  S
C184        O194   1.264       .  A
C184        O185   1.271       .  A
C184        C898   1.511       .  S
O185       Al187   1.957       .  S
O186        C188   1.251       .  A
O186       Al187   1.878       .  S
Al187       O195   1.898       .  S
Al187       O197   1.940       .  S
Al187       O196   1.800       .  S
C188        O201   1.257       .  A
C188        C839   1.487       .  S
O189        C199   1.265       .  A
O189       Al191   1.928       .  S
O190        C203   1.266       .  A
O190       Al200   1.909       .  S
Al191       O204   1.935       .  S
Al191       O201   1.908       .  S
Al191       O196   1.794       .  S
O192        C199   1.259       .  A
O192       Al200   1.893       .  S
O193        C202   1.253       .  A
O193       Al200   1.899       .  S
O194       Al200   1.874       .  S
O195        C202   1.251       .  A
O196       Al200   1.776       .  S
O197        C198   1.271       .  A
C198        C867   1.481       .  S
C199        C940   1.473       .  S
C203        O204   1.266       .  A
C203        C856   1.482       .  S
C205        C207   1.524       .  S
C205        C209   1.544       .  S
C205        C208   1.534       .  S
C205        C870   1.553       .  S
C206        C210   1.539       .  S
C206        C212   1.565       .  S
C206        C211   1.567       .  S
C206        C828   1.561       .  S
C207        C215   1.376       .  A
C207        C210   1.371       .  A
C208        C219   1.374       .  A
C208        C211   1.398       .  A
C209        C223   1.366       .  A
C209        C212   1.410       .  A
C210        C213   1.385       .  A
C211        C217   1.391       .  A
C212        C220   1.391       .  A
C213        N214   1.348       .  A
C213        H226   1.078       .  S
N214        C215   1.358       .  A
N214        N237   1.409       .  S
C215        H216   1.081       .  S
C217        N218   1.362       .  A
C217        H227   1.081       .  S
N218        C219   1.354       .  A
C219        H225   1.079       .  S
C220        N221   1.366       .  A
C220        H222   1.074       .  S
N221        C223   1.355       .  A
N221        C814   1.454       .  S
C223        H224   1.081       .  S
C228        C230   1.518       .  S
C228        C232   1.532       .  S
C228        C231   1.564       .  S
C228        C853   1.553       .  S
C229        C233   1.540       .  S
C229        C235   1.556       .  S
C229        C234   1.569       .  S
C229        C797   1.568       .  S
C230        C238   1.370       .  A
C230        C233   1.375       .  A
C231        C242   1.385       .  A
C231        C234   1.428       .  A
C232        C246   1.382       .  A
C232        C235   1.381       .  A
C233        C236   1.387       .  A
C234        C240   1.384       .  A
C235        C243   1.389       .  A
C236        N237   1.364       .  A
C236        H249   1.081       .  S
N237        C238   1.346       .  A
C238        H239   1.081       .  S
C240        N241   1.359       .  A
C240        H250   1.080       .  S
N241        C242   1.359       .  A
N241        C783   1.447       .  S
C242        H248   1.081       .  S
C243        N244   1.359       .  A
C243        H245   1.081       .  S
N244        C246   1.359       .  A
C246        H247   1.079       .  S
O251        C266   1.260       .  A
O251       Al259   1.868       .  S
C252        O262   1.259       .  A
C252        O253   1.268       .  A
C252        C800   1.503       .  S
O253       Al255   1.940       .  S
O254        C256   1.241       .  A
O254       Al255   1.865       .  S
Al255       O263   1.861       .  S
Al255       O265   1.979       .  S
Al255       O264   1.735       .  S
C256        O269   1.274       .  A
C256        C825   1.520       .  S
O257        C267   1.265       .  A
O257       Al259   1.895       .  S
O258        C271   1.264       .  A
O258       Al268   1.876       .  S
Al259       O272   1.959       .  S
Al259       O269   2.030       .  S
Al259       O264   1.777       .  S
O260        C267   1.270       .  A
O260       Al268   1.934       .  S
O261        C270   1.279       .  A
O261       Al268   2.001       .  S
O262       Al268   1.922       .  S
O263        C270   1.257       .  A
O264       Al268   1.769       .  S
O265        C266   1.272       .  A
C266        C912   1.490       .  S
C267        C772   1.498       .  S
C271        O272   1.276       .  A
C271        C951   1.474       .  S
C273        C275   1.538       .  S
C273        C277   1.551       .  S
C273        C276   1.551       .  S
C273        C755   1.560       .  S
C274        C278   1.547       .  S
C274        C280   1.536       .  S
C274        C279   1.544       .  S
C274        C741   1.551       .  S
C275        C283   1.388       .  A
C275        C278   1.378       .  A
C276        C287   1.380       .  A
C276        C279   1.404       .  A
C277        C291   1.376       .  A
C277        C280   1.408       .  A
C278        C281   1.383       .  A
C279        C285   1.378       .  A
C280        C288   1.376       .  A
C281        N282   1.351       .  A
C281        H294   1.076   1_565  S
N282        C283   1.360       .  A
N282        N305   1.415   1_565  S
C283        H284   1.081       .  S
C285        N286   1.352   1_455  A
C285        H295   1.082       .  S
N286        C287   1.361   1_655  A
N286        N516   1.412       .  S
C287        H293   1.077       .  S
C288        N289   1.351       .  A
C288        H290   1.075       .  S
N289        C291   1.354       .  A
N289        C968   1.431       .  S
C291        H292   1.082       .  S
C296        C298   1.535       .  S
C296        C300   1.554       .  S
C296        C299   1.561       .  S
C296        C727   1.552       .  S
C297        C301   1.541       .  S
C297        C303   1.551       .  S
C297        C302   1.551       .  S
C297        C713   1.552       .  S
C298        C306   1.382       .  A
C298        C301   1.378       .  A
C299        C310   1.390       .  A
C299        C302   1.405       .  A
C300        C314   1.394   1_455  A
C300        C303   1.396       .  A
C301        C304   1.386       .  A
C302        C308   1.385       .  A
C303        C311   1.378   1_455  A
C304        N305   1.362       .  A
C304        H317   1.078       .  S
N305        C306   1.351       .  A
C306        H307   1.081       .  S
C308        N309   1.361       .  A
C308        H318   1.082       .  S
N309        C310   1.360       .  A
N309       C1080   1.453       .  S
C310        H316   1.081       .  S
C311        N312   1.357       .  A
C311        H313   1.078       .  S
N312        C314   1.357       .  A
N312        N490   1.418       .  S
C314        H315   1.081       .  S
O319        C334   1.256       .  A
O319       Al327   1.869       .  S
C320        O330   1.255       .  A
C320        O321   1.269       .  A
C320        C716   1.487       .  S
O321       Al323   1.950       .  S
O322        C324   1.230       .  A
O322       Al323   1.834       .  S
Al323       O331   1.839       .  S
Al323       O333   2.013       .  S
Al323       O332   1.735       .  S
C324        O337   1.277       .  A
C324        C744   1.517       .  S
O325        C335   1.271       .  A
O325       Al327   1.915       .  S
O326        C339   1.265       .  A
O326       Al336   1.869       .  S
Al327       O340   1.939       .  S
Al327       O337   2.049       .  S
Al327       O332   1.773       .  S
O328        C335   1.267       .  A
O328       Al336   1.913       .  S
O329        C338   1.274   1_455  A
O329       Al336   1.975       .  S
O330       Al336   1.891       .  S
O331        C338   1.255   1_455  A
O332       Al336   1.764       .  S
O333        C334   1.279       .  A
C334        C685   1.509   1_545  S
C335       C1010   1.507       .  S
C338        C474   1.462       .  S
C339        O340   1.276       .  A
C339        C699   1.481       .  S
C341        C343   1.519       .  S
C341        C345   1.535       .  S
C341        C344   1.569       .  S
C341        C671   1.533       .  S
C342        C346   1.531       .  S
C342        C348   1.552       .  S
C342        C347   1.558       .  S
C342        C702   1.548   1_554  S
C343        C351   1.373       .  A
C343        C346   1.371       .  A
C344        C355   1.398       .  A
C344        C347   1.399       .  A
C345        C359   1.375       .  A
C345        C348   1.401       .  A
C346        C349   1.382       .  A
C347        C353   1.385       .  A
C348        C356   1.382       .  A
C349        N350   1.358       .  A
C349        H362   1.081   1_554  S
N350        C351   1.354       .  A
N350        N373   1.410   1_545  S
C351        H352   1.081       .  S
C353        N354   1.363       .  A
C353        H363   1.080       .  S
N354        C355   1.362       .  A
N354        N448   1.427   1_455  S
C355        H361   1.080       .  S
C356        N357   1.357       .  A
C356        H358   1.082       .  S
N357        C359   1.354       .  A
N357       C1035   1.436       .  S
C359        H360   1.082       .  S
C364        C366   1.537       .  S
C364        C368   1.550   1_554  S
C364        C367   1.564   1_554  S
C364        C657   1.578       .  S
C365        C369   1.533       .  S
C365        C371   1.550       .  S
C365        C370   1.569       .  S
C365        C688   1.561       .  S
C366        C374   1.376       .  A
C366        C369   1.380   1_554  A
C367        C378   1.396   1_556  A
C367        C370   1.418       .  A
C368        C382   1.371       .  A
C368        C371   1.399       .  A
C369        C372   1.382       .  A
C370        C376   1.387       .  A
C371        C379   1.403       .  A
C372        N373   1.355   1_556  A
C372        H385   1.081   1_565  S
N373        C374   1.355       .  A
C374        H375   1.081       .  S
C376        N377   1.359       .  A
C376        H386   1.082       .  S
N377        C378   1.365   1_556  A
N377        C982   1.461       .  S
C378        H384   1.079       .  S
C379        N380   1.361   1_455  A
C379        H381   1.081   1_455  S
N380        C382   1.350   1_655  A
N380        N422   1.418       .  S
C382        H383   1.080   1_456  S
O387        C402   1.268       .  A
O387       Al395   1.910       .  S
C388        O398   1.268       .  A
C388        O389   1.265       .  A
C388        C660   1.517       .  S
O389       Al391   1.923       .  S
O390        C392   1.257       .  A
O390       Al391   1.875       .  S
Al391       O399   1.940       .  S
Al391       O401   1.936       .  S
Al391       O400   1.788       .  S
C392        O405   1.267       .  A
C392       C1122   1.481       .  S
O393        C403   1.265       .  A
O393       Al395   1.959       .  S
O394        C407   1.259       .  A
O394       Al404   1.920       .  S
Al395       O408   1.876       .  S
Al395       O405   1.908       .  S
Al395       O400   1.782       .  S
O396        C403   1.251       .  A
O396       Al404   1.854       .  S
O397        C406   1.250   1_455  A
O397       Al404   1.845       .  S
O398       Al404   1.916       .  S
O399        C406   1.260   1_455  A
O400       Al404   1.750       .  S
O401        C402   1.274       .  A
C402        C758   1.516       .  S
C403        C674   1.482   1_565  S
C406        C542   1.455       .  S
C407        O408   1.257       .  A
C407        C730   1.475   1_565  S
C409        C411   1.530       .  S
C409        C413   1.546       .  S
C409        C412   1.542       .  S
C409        C646   1.548       .  S
C410        C414   1.565       .  S
C410        C416   1.535       .  S
C410        C415   1.555       .  S
C410        C629   1.548       .  S
C411        C419   1.388       .  A
C411        C414   1.385       .  A
C412        C423   1.373       .  A
C412        C415   1.398       .  A
C413        C427   1.374       .  A
C413        C416   1.401       .  A
C414        C417   1.385       .  A
C415        C421   1.391       .  A
C416        C424   1.380       .  A
C417        N418   1.350   1_565  A
C417        H430   1.076   1_565  S
N418        C419   1.355   1_545  A
N418        N441   1.415       .  S
C419        H420   1.082   1_556  S
C421        N422   1.360       .  A
C421        H431   1.082       .  S
N422        C423   1.358       .  A
C423        H429   1.075       .  S
C424        N425   1.357       .  A
C424        H426   1.080       .  S
N425        C427   1.354       .  A
N425        C769   1.443       .  S
C427        H428   1.083       .  S
C432        C434   1.532       .  S
C432        C436   1.563       .  S
C432        C435   1.579       .  S
C432        C618   1.561       .  S
C433        C437   1.533       .  S
C433        C439   1.543   1_556  S
C433        C438   1.570       .  S
C433        C601   1.561       .  S
C434        C442   1.390       .  A
C434        C437   1.368   1_554  A
C435        C446   1.389       .  A
C435        C438   1.423   1_554  A
C436        C450   1.405       .  A
C436        C439   1.384       .  A
C437        C440   1.380       .  A
C438        C444   1.396       .  A
C439        C447   1.381       .  A
C440        N441   1.358       .  A
C440        H453   1.075       .  S
N441        C442   1.353   1_556  A
C442        H443   1.082       .  S
C444        N445   1.367       .  A
C444        H454   1.080       .  S
N445        C446   1.361   1_556  A
N445        C884   1.466       .  S
C446        H452   1.081       .  S
C447        N448   1.356       .  A
C447        H449   1.081   1_554  S
N448        C450   1.368       .  A
C450        H451   1.081       .  S
O455        C470   1.254       .  A
O455       Al463   1.878       .  S
C456        O466   1.264       .  A
C456        O457   1.273       .  A
C456        C604   1.516       .  S
O457       Al459   1.944       .  S
O458        C460   1.254       .  A
O458       Al459   1.809       .  S
Al459       O467   1.861       .  S
Al459       O469   1.971       .  S
Al459       O468   1.756       .  S
C460        O473   1.270       .  A
C460        C632   1.478       .  S
O461        C471   1.255       .  A
O461       Al463   1.893       .  S
O462        C475   1.261       .  A
O462       Al472   1.875       .  S
Al463       O476   1.936       .  S
Al463       O473   1.971       .  S
Al463       O468   1.765       .  S
O464        C471   1.263       .  A
O464       Al472   1.924       .  S
O465        C474   1.268       .  A
O465       Al472   1.959       .  S
O466       Al472   1.905       .  S
O467        C474   1.261       .  A
O468       Al472   1.788       .  S
O469        C470   1.267       .  A
C470        C573   1.513   1_545  S
C471        C811   1.474       .  S
C475        O476   1.273       .  A
C475        C590   1.467       .  S
C477        C479   1.518       .  S
C477        C481   1.539       .  S
C477        C480   1.566       .  S
C477        C559   1.537       .  S
C478        C482   1.542       .  S
C478        C484   1.553       .  S
C478        C483   1.528       .  S
C478        C587   1.542       .  S
C479        C487   1.371       .  A
C479        C482   1.379       .  A
C480        C491   1.401       .  A
C480        C483   1.393       .  A
C481        C495   1.375       .  A
C481        C484   1.405       .  A
C482        C485   1.383       .  A
C483        C489   1.365       .  A
C484        C492   1.383       .  A
C485        N486   1.358       .  A
C485        H498   1.080       .  S
N486        C487   1.350       .  A
N486        N509   1.408   1_545  S
C487        H488   1.081       .  S
C489        N490   1.352       .  A
C489        H499   1.081       .  S
N490        C491   1.366       .  A
C491        H497   1.080       .  S
C492        N493   1.357       .  A
C492        H494   1.080       .  S
N493        C495   1.352       .  A
N493        C842   1.435       .  S
C495        H496   1.082       .  S
C500        C502   1.532       .  S
C500        C504   1.548       .  S
C500        C503   1.561       .  S
C500        C545   1.573       .  S
C501        C505   1.526       .  S
C501        C507   1.553       .  S
C501        C506   1.554       .  S
C501        C576   1.555       .  S
C502        C510   1.378       .  A
C502        C505   1.374       .  A
C503        C514   1.391       .  A
C503        C506   1.413       .  A
C504        C518   1.369       .  A
C504        C507   1.406       .  A
C505        C508   1.379       .  A
C506        C512   1.378       .  A
C507        C515   1.390       .  A
C508        N509   1.351       .  A
C508        H521   1.080       .  S
N509        C510   1.355       .  A
C510        H511   1.081       .  S
C512        N513   1.355       .  A
C512        H522   1.082       .  S
N513        C514   1.361       .  A
N513        C786   1.446       .  S
C514        H520   1.079       .  S
C515        N516   1.363       .  A
C515        H517   1.080       .  S
N516        C518   1.350       .  A
C518        H519   1.081       .  S
O523        C538   1.272       .  A
O523       Al531   1.923       .  S
C524        O534   1.270       .  A
C524        O525   1.263       .  A
C524        C548   1.506       .  S
O525       Al527   1.907       .  S
O526        C528   1.263       .  A
O526       Al527   1.903       .  S
Al527       O535   1.943       .  S
Al527       O537   1.913       .  S
Al527       O536   1.787       .  S
C528        O541   1.268       .  A
C528        C923   1.501       .  S
O529        C539   1.265       .  A
O529       Al531   1.969       .  S
O530        C543   1.265       .  A
O530       Al540   1.926       .  S
Al531       O544   1.876       .  S
Al531       O541   1.912       .  S
Al531       O536   1.783       .  S
O532        C539   1.249       .  A
O532       Al540   1.854       .  S
O533        C542   1.248       .  A
O533       Al540   1.835       .  S
O534       Al540   1.927       .  S
O535        C542   1.261       .  A
O536       Al540   1.753       .  S
O537        C538   1.268       .  A
C538        C643   1.502       .  S
C539        C562   1.486   1_565  S
C543        O544   1.259       .  A
C543        C615   1.481   1_565  S
C545        C546   1.422       .  A
C545        C550   1.444       .  A
C546        C547   1.423       .  A
C546        C551   1.446       .  S
C547        C548   1.418       .  A
C547        C554   1.450       .  S
C548        C549   1.407       .  A
C549        C550   1.410       .  A
C549        C552   1.457       .  S
C550        C553   1.457       .  S
C551        N558   1.158       .  T
C552        N557   1.158       .  T
C553        N555   1.158       .  T
C554        N556   1.156       .  T
C559        C560   1.439       .  A
C559        C564   1.398       .  A
C560        C561   1.423       .  A
C560        C565   1.447       .  S
C561        C562   1.403       .  A
C561        C568   1.449       .  S
C562        C563   1.412       .  A
C563        C564   1.380       .  A
C563        C566   1.441       .  S
C564        C567   1.445       .  S
C565        N572   1.157       .  T
C566        N571   1.158       .  T
C567        N569   1.156       .  T
C568        N570   1.157   1_545  T
C573        C574   1.419       .  A
C573        C578   1.422       .  A
C574        C575   1.427       .  A
C574        C579   1.446       .  S
C575        C576   1.416       .  A
C575        C582   1.446       .  S
C576        C577   1.418       .  A
C577        C578   1.408       .  A
C577        C580   1.453       .  S
C578        C581   1.453   1_565  S
C579        N586   1.157       .  T
C580        N585   1.157       .  T
C581        N583   1.157       .  T
C582        N584   1.158       .  T
C587        C588   1.427       .  A
C587        C592   1.415       .  A
C588        C589   1.401       .  A
C588        C593   1.454       .  S
C589        C590   1.402       .  A
C589        C596   1.453       .  S
C590        C591   1.407       .  A
C591        C592   1.414       .  A
C591        C594   1.449       .  S
C592        C595   1.446       .  S
C593        N600   1.158       .  T
C594        N599   1.157       .  T
C595        N597   1.158       .  T
C596        N598   1.157       .  T
C601        C602   1.435       .  A
C601        C606   1.412       .  A
C602        C603   1.407       .  A
C602        C607   1.459       .  S
C603        C604   1.418       .  A
C603        C610   1.456       .  S
C604        C605   1.428       .  A
C605        C606   1.426       .  A
C605        C608   1.450       .  S
C606        C609   1.446       .  S
C607        N614   1.158       .  T
C608        N613   1.157       .  T
C609        N611   1.158       .  T
C610        N612   1.158       .  T
C615        C616   1.393       .  A
C615        C620   1.406       .  A
C616        C617   1.407       .  A
C616        C621   1.452       .  S
C617        C618   1.441       .  A
C617        C624   1.448       .  S
C618        C619   1.435       .  A
C619        C620   1.416       .  A
C619        C622   1.449       .  S
C620        C623   1.455       .  S
C621        N628   1.156       .  T
C622        N627   1.158       .  T
C623        N625   1.157       .  T
C624        N626   1.155       .  T
C629        C630   1.422       .  A
C629        C634   1.405       .  A
C630        C631   1.430       .  A
C630        C635   1.445       .  S
C631        C632   1.419   1_565  A
C631        C638   1.447       .  S
C632        C633   1.400       .  A
C633        C634   1.388   1_545  A
C633        C636   1.451       .  S
C634        C637   1.445   1_565  S
C635        N642   1.158       .  T
C636        N641   1.157       .  T
C637        N639   1.155       .  T
C638        N640   1.157       .  T
C643        C644   1.420       .  A
C643        C648   1.415       .  A
C644        C645   1.417       .  A
C644        C649   1.449       .  S
C645        C646   1.412   1_554  A
C645        C652   1.447       .  S
C646        C647   1.425   1_556  A
C647        C648   1.405       .  A
C647        C650   1.454   1_554  S
C648        C651   1.454       .  S
C649        N656   1.158       .  T
C650        N655   1.158       .  T
C651        N653   1.157       .  T
C652        N654   1.158       .  T
C657        C658   1.421       .  A
C657        C662   1.444       .  A
C658        C659   1.430       .  A
C658        C663   1.444       .  S
C659        C660   1.423       .  A
C659        C666   1.450       .  S
C660        C661   1.412       .  A
C661        C662   1.407       .  A
C661        C664   1.457   1_455  S
C662        C665   1.460       .  S
C663        N670   1.158       .  T
C664        N669   1.158       .  T
C665        N667   1.158       .  T
C666        N668   1.158       .  T
C671        C672   1.400       .  A
C671        C676   1.437       .  A
C672        C673   1.375       .  A
C672        C677   1.448       .  S
C673        C674   1.409       .  A
C673        C680   1.443       .  S
C674        C675   1.407       .  A
C675        C676   1.426       .  A
C675        C678   1.449       .  S
C676        C679   1.445       .  S
C677        N684   1.156       .  T
C678        N683   1.157   1_545  T
C679        N681   1.156       .  T
C680        N682   1.157       .  T
C685        C686   1.411       .  A
C685        C690   1.420       .  A
C686        C687   1.425       .  A
C686        C691   1.445       .  S
C687        C688   1.423       .  A
C687        C694   1.447       .  S
C688        C689   1.421       .  A
C689        C690   1.410       .  A
C689        C692   1.454       .  S
C690        C693   1.453   1_565  S
C691        N698   1.156   1_455  T
C692        N697   1.158       .  T
C693        N695   1.157       .  T
C694        N696   1.158       .  T
C699        C700   1.405       .  A
C699        C704   1.407       .  A
C700        C701   1.408       .  A
C700        C705   1.455       .  S
C701        C702   1.430       .  A
C701        C708   1.448   1_556  S
C702        C703   1.429       .  A
C703        C704   1.407       .  A
C703        C706   1.447       .  S
C704        C707   1.455       .  S
C705        N712   1.158       .  T
C706        N711   1.155       .  T
C707        N709   1.157   1_455  T
C708        N710   1.157       .  T
C713        C714   1.417       .  A
C713        C718   1.413       .  A
C714        C715   1.412       .  A
C714        C719   1.448       .  S
C715        C716   1.406       .  A
C715        C722   1.448       .  S
C716        C717   1.418       .  A
C717        C718   1.412       .  A
C717        C720   1.448       .  S
C718        C721   1.450       .  S
C719        N726   1.157       .  T
C720        N725   1.157       .  T
C721        N723   1.156       .  T
C722        N724   1.157   1_455  T
C727        C728   1.424       .  A
C727        C732   1.440       .  A
C728        C729   1.409       .  A
C728        C733   1.448       .  S
C729        C730   1.406       .  A
C729        C736   1.453       .  S
C730        C731   1.397       .  A
C731        C732   1.407       .  A
C731        C734   1.453       .  S
C732        C735   1.453       .  S
C733        N740   1.158       .  T
C734        N739   1.157   1_445  T
C735        N737   1.157   1_455  T
C736        N738   1.157       .  T
C741        C742   1.411       .  A
C741        C746   1.414       .  A
C742        C743   1.396   1_565  A
C742        C747   1.461       .  S
C743        C744   1.437       .  A
C743        C750   1.458       .  S
C744        C745   1.419   1_545  A
C745        C746   1.428       .  A
C745        C748   1.446       .  S
C746        C749   1.444       .  S
C747        N754   1.158       .  T
C748        N753   1.157       .  T
C749        N751   1.158       .  T
C750        N752   1.157       .  T
C755        C756   1.419       .  A
C755        C760   1.425       .  A
C756        C757   1.424       .  A
C756        C761   1.445       .  S
C757        C758   1.420       .  A
C757        C764   1.450       .  S
C758        C759   1.424       .  A
C759        C760   1.409       .  A
C759        C762   1.455       .  S
C760        C763   1.456       .  S
C761        N768   1.158       .  T
C762        N767   1.158       .  T
C763        N765   1.157       .  T
C764        N766   1.158       .  T
C769        C770   1.411       .  A
C769        C774   1.409       .  A
C770        C771   1.410       .  A
C770        C775   1.451       .  S
C771        C772   1.419       .  A
C771        C778   1.452       .  S
C772        C773   1.422       .  A
C773        C774   1.410       .  A
C773        C776   1.452       .  S
C774        C777   1.451       .  S
C775        N782   1.158       .  T
C776        N781   1.158       .  T
C777        N779   1.157       .  T
C778        N780   1.157       .  T
C783        C784   1.408       .  A
C783        C788   1.413       .  A
C784        C785   1.414       .  A
C784        C789   1.447       .  S
C785        C786   1.411       .  A
C785        C792   1.448       .  S
C786        C787   1.410       .  A
C787        C788   1.418       .  A
C787        C790   1.447       .  S
C788        C791   1.448       .  S
C789        N796   1.157       .  T
C790        N795   1.157       .  T
C791        N793   1.157       .  T
C792        N794   1.157       .  T
C797        C798   1.426       .  A
C797        C802   1.425       .  A
C798        C799   1.397       .  A
C798        C803   1.447       .  S
C799        C800   1.396       .  A
C799        C806   1.445       .  S
C800        C801   1.420       .  A
C801        C802   1.432       .  A
C801        C804   1.448       .  S
C802        C805   1.446       .  S
C803        N810   1.155       .  T
C804        N809   1.156       .  T
C805        N807   1.158       .  T
C806        N808   1.156       .  T
C811        C812   1.403       .  A
C811        C816   1.406       .  A
C812        C813   1.401       .  A
C812        C817   1.451       .  S
C813        C814   1.420       .  A
C813        C820   1.448       .  S
C814        C815   1.422       .  A
C815        C816   1.417       .  A
C815        C818   1.447       .  S
C816        C819   1.450       .  S
C817        N824   1.157       .  T
C818        N823   1.157       .  T
C819        N821   1.157       .  T
C820        N822   1.157       .  T
C825        C826   1.418       .  A
C825        C830   1.427       .  A
C826        C827   1.429       .  A
C826        C831   1.446       .  S
C827        C828   1.418       .  A
C827        C834   1.441       .  S
C828        C829   1.421       .  A
C829        C830   1.399       .  A
C829        C832   1.460       .  S
C830        C833   1.451       .  S
C831        N838   1.157       .  T
C832        N837   1.157       .  T
C833        N835   1.153       .  T
C834        N836   1.157       .  T
C839        C840   1.421       .  A
C839        C844   1.413       .  A
C840        C841   1.409       .  A
C840        C845   1.452       .  S
C841        C842   1.403       .  A
C841        C848   1.449       .  S
C842        C843   1.407       .  A
C843        C844   1.412       .  A
C843        C846   1.448       .  S
C844        C847   1.450       .  S
C845        N852   1.157       .  T
C846        N851   1.157       .  T
C847        N849   1.157       .  T
C848        N850   1.157       .  T
C853        C854   1.411       .  A
C853        C858   1.439       .  A
C854        C855   1.419       .  A
C854        C859   1.446       .  S
C855        C856   1.412       .  A
C855        C862   1.445       .  S
C856        C857   1.398       .  A
C857        C858   1.406       .  A
C857        C860   1.451       .  S
C858        C861   1.456       .  S
C859        N866   1.158       .  T
C860        N865   1.156       .  T
C861        N863   1.158       .  T
C862        N864   1.156       .  T
C867        C868   1.404       .  A
C867        C872   1.405       .  A
C868        C869   1.413       .  A
C868        C873   1.450       .  S
C869        C870   1.427       .  A
C869        C876   1.449       .  S
C870        C871   1.430       .  A
C871        C872   1.409       .  A
C871        C874   1.453       .  S
C872        C875   1.454       .  S
C873        N880   1.156       .  T
C874        N879   1.158       .  T
C875        N877   1.157       .  T
C876        N878   1.158       .  T
C881        C882   1.416       .  A
C881        C886   1.417   1_556  A
C882        C883   1.425       .  A
C882        C887   1.448       .  S
C883        C884   1.417       .  A
C883        C890   1.448       .  S
C884        C885   1.416   1_556  A
C885        C886   1.425       .  A
C885        C888   1.448       .  S
C886        C889   1.448       .  S
C887        N894   1.157       .  T
C888        N893   1.157       .  T
C889        N891   1.157       .  T
C890        N892   1.157       .  T
C895        C896   1.439       .  A
C895        C900   1.419       .  A
C896        C897   1.403       .  A
C896        C901   1.461       .  S
C897        C898   1.410       .  A
C897        C904   1.451       .  S
C898        C899   1.421       .  A
C899        C900   1.432       .  A
C899        C902   1.448       .  S
C900        C903   1.444       .  S
C901        N908   1.158       .  T
C902        N907   1.157       .  T
C903        N905   1.158       .  T
C904        N906   1.155       .  T
C909        C910   1.435       .  A
C909        C914   1.432       .  A
C910        C911   1.417       .  A
C910        C915   1.453       .  S
C911        C912   1.411       .  A
C911        C918   1.454       .  S
C912        C913   1.398       .  A
C913        C914   1.408       .  A
C913        C916   1.449       .  S
C914        C917   1.448       .  S
C915        N922   1.158       .  T
C916        N921   1.156       .  T
C917        N919   1.158       .  T
C918        N920   1.157       .  T
C923        C924   1.428       .  A
C923        C928   1.420       .  A
C924        C925   1.406       .  A
C924        C929   1.452       .  S
C925        C926   1.401       .  A
C925        C932   1.451       .  S
C926        C927   1.407       .  A
C927        C928   1.411       .  A
C927        C930   1.450       .  S
C928        C931   1.450       .  S
C929        N936   1.157       .  T
C930        N935   1.157       .  T
C931        N933   1.157       .  T
C932        N934   1.157       .  T
C937        C938   1.422       .  A
C937        C942   1.413       .  A
C938        C939   1.429       .  A
C938        C943   1.444       .  S
C939        C940   1.414       .  A
C939        C946   1.448       .  S
C940        C941   1.390       .  A
C941        C942   1.391       .  A
C941        C944   1.443       .  S
C942        C945   1.446       .  S
C943        N950   1.158       .  T
C944        N949   1.156       .  T
C945        N947   1.155       .  T
C946        N948   1.157       .  T
C951        C952   1.404       .  A
C951        C956   1.410       .  A
C952        C953   1.404       .  A
C952        C957   1.450       .  S
C953        C954   1.427       .  A
C953        C960   1.454       .  S
C954        C955   1.410       .  A
C955        C956   1.415       .  A
C955        C958   1.445       .  S
C956        C959   1.448       .  S
C957        N964   1.155       .  T
C958        N963   1.158   1_556  T
C959        N961   1.157       .  T
C960        N962   1.157       .  T
C965        C966   1.417       .  A
C965        C970   1.416       .  A
C966        C967   1.406       .  A
C966        C971   1.450       .  S
C967        C968   1.403       .  A
C967        C974   1.449       .  S
C968        C969   1.406       .  A
C969        C970   1.409       .  A
C969        C972   1.449       .  S
C970        C973   1.451       .  S
C971        N978   1.157       .  T
C972        N977   1.157       .  T
C973        N975   1.158       .  T
C974        N976   1.157       .  T
C979        C980   1.413   1_554  A
C979        C984   1.415       .  A
C980        C981   1.424       .  A
C980        C985   1.447       .  S
C981        C982   1.416       .  A
C981        C988   1.447       .  S
C982        C983   1.414   1_556  A
C983        C984   1.422       .  A
C983        C986   1.448       .  S
C984        C987   1.448       .  S
C985        N992   1.157       .  T
C986        N991   1.157       .  T
C987        N989   1.157       .  T
C988        N990   1.157       .  T
C993        C994   1.418       .  A
C993        C998   1.441       .  A
C994        C995   1.431       .  A
C994        C999   1.444       .  S
C995        C996   1.421       .  A
C995       C1002   1.448       .  S
C996        C997   1.400       .  A
C997        C998   1.400       .  A
C997       C1000   1.454       .  S
C998       C1001   1.452       .  S
C999       N1006   1.158       .  T
C1000      N1005   1.155       .  T
C1001      N1003   1.155       .  T
C1002      N1004   1.157       .  T
C1007      C1008   1.402       .  A
C1007      C1012   1.407       .  A
C1008      C1009   1.408       .  A
C1008      C1013   1.451       .  S
C1009      C1010   1.428       .  A
C1009      C1016   1.452       .  S
C1010      C1011   1.423       .  A
C1011      C1012   1.414       .  A
C1011      C1014   1.450       .  S
C1012      C1015   1.450       .  S
C1013      N1020   1.157       .  T
C1014      N1019   1.158       .  T
C1015      N1017   1.157       .  T
C1016      N1018   1.158       .  T
C1021      C1022   1.411       .  A
C1021      C1026   1.421       .  A
C1022      C1023   1.393       .  A
C1022      C1027   1.447       .  S
C1023      C1024   1.393       .  A
C1023      C1030   1.447       .  S
C1024      C1025   1.417       .  A
C1025      C1026   1.430       .  A
C1025      C1028   1.449       .  S
C1026      C1029   1.445       .  S
C1027      N1034   1.155       .  T
C1028      N1033   1.157       .  T
C1029      N1031   1.158       .  T
C1030      N1032   1.156       .  T
C1035      C1036   1.404       .  A
C1035      C1040   1.404       .  A
C1036      C1037   1.413       .  A
C1036      C1041   1.449       .  S
C1037      C1038   1.422       .  A
C1037      C1044   1.450       .  S
C1038      C1039   1.421       .  A
C1039      C1040   1.407       .  A
C1039      C1042   1.453       .  S
C1040      C1043   1.449       .  S
C1041      N1048   1.157       .  T
C1042      N1047   1.158       .  T
C1043      N1045   1.157       .  T
C1044      N1046   1.158       .  T
C1049      C1050   1.416       .  A
C1049      C1054   1.390       .  A
C1050      C1051   1.421       .  A
C1050      C1055   1.449       .  S
C1051      C1052   1.413       .  A
C1051      C1058   1.445       .  S
C1052      C1053   1.438       .  A
C1053      C1054   1.397       .  A
C1053      C1056   1.447       .  S
C1054      C1057   1.455       .  S
C1055      N1062   1.157       .  T
C1056      N1061   1.155       .  T
C1057      N1059   1.157       .  T
C1058      N1060   1.158       .  T
C1063      C1064   1.410       .  A
C1063      C1068   1.419       .  A
C1064      C1065   1.409       .  A
C1064      C1069   1.453       .  S
C1065      C1066   1.431   1_554  A
C1065      C1072   1.455   1_554  S
C1066      C1067   1.411   1_556  A
C1067      C1068   1.420       .  A
C1067      C1070   1.444       .  S
C1068      C1071   1.449       .  S
C1069      N1076   1.157       .  T
C1070      N1075   1.158       .  T
C1071      N1073   1.157       .  T
C1072      N1074   1.158       .  T
C1077      C1078   1.412       .  A
C1077      C1082   1.410       .  A
C1078      C1079   1.420       .  A
C1078      C1083   1.446       .  S
C1079      C1080   1.412       .  A
C1079      C1086   1.447       .  S
C1080      C1081   1.413       .  A
C1081      C1082   1.417       .  A
C1081      C1084   1.447       .  S
C1082      C1085   1.448       .  S
C1083      N1090   1.157       .  T
C1084      N1089   1.157       .  T
C1085      N1087   1.157       .  T
C1086      N1088   1.157       .  T
C1091      C1092   1.413       .  A
C1091      C1096   1.417       .  A
C1092      C1093   1.424       .  A
C1092      C1097   1.445       .  S
C1093      C1094   1.417       .  A
C1093      C1100   1.448       .  S
C1094      C1095   1.411       .  A
C1095      C1096   1.414       .  A
C1095      C1098   1.449       .  S
C1096      C1099   1.445       .  S
C1097      N1104   1.157       .  T
C1098      N1103   1.156       .  T
C1099      N1101   1.155       .  T
C1100      N1102   1.157       .  T
C1105      C1106   1.389       .  A
C1105      C1110   1.417       .  A
C1106      C1107   1.382       .  A
C1106      C1111   1.437       .  S
C1107      C1108   1.423       .  A
C1107      C1114   1.448       .  S
C1108      C1109   1.423       .  A
C1109      C1110   1.434       .  A
C1109      C1112   1.443       .  S
C1110      C1113   1.446       .  S
C1111      N1118   1.154       .  T
C1112      N1117   1.157       .  T
C1113      N1115   1.157       .  T
C1114      N1116   1.156       .  T
C1119      C1120   1.403       .  A
C1119      C1124   1.409       .  A
C1120      C1121   1.400       .  A
C1120      C1125   1.453       .  S
C1121      C1122   1.425       .  A
C1121      C1128   1.454       .  S
C1122      C1123   1.412       .  A
C1123      C1124   1.409       .  A
C1123      C1126   1.450       .  S
C1124      C1127   1.448       .  S
C1125      N1132   1.158       .  T
C1126      N1131   1.157       .  T
C1127      N1129   1.157       .  T
C1128      N1130   1.158       .  T
C1133      C1134   1.405       .  A
C1133      C1138   1.403       .  A
C1134      C1135   1.384       .  A
C1134      C1139   1.453       .  S
C1135      C1136   1.419       .  A
C1135      C1142   1.438       .  S
C1136      C1137   1.451       .  A
C1137      C1138   1.427       .  A
C1137      C1140   1.444       .  S
C1138      C1141   1.447       .  S
C1139      N1146   1.158       .  T
C1140      N1145   1.158       .  T
C1141      N1143   1.157       .  T
C1142      N1144   1.155       .  T
C1147      C1148   1.421       .  A
C1147      C1152   1.425       .  A
C1148      C1149   1.419       .  A
C1148      C1153   1.445       .  S
C1149      C1150   1.406       .  A
C1149      C1156   1.448       .  S
C1150      C1151   1.403       .  A
C1151      C1152   1.408       .  A
C1151      C1154   1.455       .  S
C1152      C1155   1.444       .  S
C1153      N1160   1.158       .  T
C1154      N1159   1.158       .  T
C1155      N1157   1.155       .  T
C1156      N1158   1.157       .  T
