geometry optimzed in LAMMPS
_audit_creation_date              2020-12-01 
_audit_creation_method            'lammps2cif' 
_symmetry_space_group_name_H-M    'P1' 
_symmetry_Int_Tables_number       1 
_symmetry_cell_setting            triclinic 
loop_ 
_symmetry_equiv_pos_as_xyz 
  x,y,z 
_cell_length_a                    45.67136564 
_cell_length_b                    45.31913632232214 
_cell_length_c                    74.45983606513201 
_cell_angle_alpha                 89.8414642845229 
_cell_angle_beta                  90.7002885406698 
_cell_angle_gamma                 119.88932726823784 
loop_ 
_atom_site_label 
_atom_site_type_symbol 
_atom_site_fract_x 
_atom_site_fract_y 
_atom_site_fract_z 
_atom_site_charge 
N1          N  0.44355259  0.42028817  0.85850826    -0.26200
N2          N  0.43398272  0.44351525  0.85734439    -0.34100
C3          C  0.39997159  0.42764157  0.85658050     0.02100
C4          C  0.38770434  0.39297198  0.85754558     0.08200
C5          C  0.41582099  0.38910466  0.85879030    -0.04900
H6          H  0.38539248  0.44048326  0.85592920     0.08800
H7          H  0.41612622  0.36544387  0.85979517     0.10000
Cu8        Cu  0.45999130  0.00258202  0.86310077     0.44200
Cu9        Cu  0.49369658  0.43070723  0.85971449     0.42000
Cu10       Cu  0.04722356  0.02709153  0.86487068     0.43900
N11         N  0.49880838  0.05341829  0.86426098    -0.33600
N12         N  0.03200963  0.06309999  0.86396421    -0.27800
C13         C  0.05175305  0.09711789  0.86504832    -0.03900
C14         C  0.03104277  0.11122141  0.86513939     0.08300
C15         C  0.49695830  0.08222514  0.86521430     0.02100
H16         H  0.07898134  0.11040089  0.86640913     0.09700
H17         H  0.47374993  0.08313501  0.86552573     0.08800
N18         N  0.06044860  0.98959030  0.86457165    -0.35000
N19         N  0.04627970  0.44958669  0.86124000    -0.27200
C20         C  0.06458977  0.43368410  0.85988223    -0.02500
C21         C  0.09852525  0.45801066  0.86199447     0.06200
C22         C  0.09211442  0.99503586  0.86481981     0.04200
H23         H  0.05405708  0.40681296  0.85721223     0.09400
H24         H  0.11444164  0.01992390  0.86506944     0.08200
N25         N  0.12789800  0.45470238  0.85895379    -0.02400
C26         C  0.14823471  0.97537541  0.87169981     0.00200
C27         C  0.18215067  0.46752935  0.85930815    -0.22700
C28         C  0.16629585  0.44612114  0.84494991    -0.22900
C29         C  0.13304496  0.43860322  0.84510541     0.00100
H30         H  0.20762846  0.47602873  0.86405520     0.13900
H31         H  0.17719413  0.43527979  0.83615711     0.13900
N32         N  0.04173763  0.14679950  0.86727010    -0.02400
C33         C  0.02753671  0.16107729  0.87753049     0.00200
C34         C  0.04418520  0.19597863  0.87477436    -0.22700
C35         C  0.06930463  0.20349762  0.86277134    -0.22900
C36         C  0.06815015  0.17326576  0.85880789     0.00100
H37         H  0.03880788  0.21427063  0.88102805     0.13900
H38         H  0.08605372  0.22833570  0.85723943     0.13900
N39         N  0.35282932  0.36624523  0.85761833    -0.02400
C40         C  0.33832663  0.33814855  0.86829047     0.00200
C41         C  0.30449355  0.31815867  0.86344029    -0.22700
C42         C  0.29807743  0.33420004  0.84965032    -0.22900
C43         C  0.32791676  0.36370902  0.84647162     0.00100
H44         H  0.28536754  0.29610757  0.87037874     0.13900
H45         H  0.27367342  0.32654567  0.84355607     0.13900
N46         N  0.22713842  0.38957528  0.77581483    -0.26200
N47         N  0.24359030  0.37237887  0.77654562    -0.34100
C48         C  0.27692910  0.39461669  0.77859520     0.02100
C49         C  0.28149493  0.42718856  0.77870950     0.08200
C50         C  0.24950761  0.42302316  0.77713263    -0.04900
H51         H  0.29602597  0.38745060  0.78065266     0.08800
H52         H  0.24275004  0.44266199  0.77831777     0.10000
Cu53       Cu  0.21979320  0.31923328  0.77674140     0.44200
Cu54       Cu  0.17478828  0.36803202  0.77589147     0.42000
Cu55       Cu  0.12918172  0.27731486  0.77856959     0.43900
N56         N  0.18898059  0.26656813  0.77939696    -0.33600
N57         N  0.15575678  0.25163659  0.78069555    -0.27800
C58         C  0.14308145  0.21840970  0.78435111    -0.03900
C59         C  0.16956929  0.21197796  0.78498614     0.08300
C60         C  0.19835109  0.24296207  0.78188312     0.02100
H61         H  0.11675662  0.20072549  0.78674341     0.09700
H62         H  0.22422124  0.24843885  0.78255469     0.08800
N63         N  0.10594167  0.30636409  0.77780525    -0.35000
N64         N  0.12233227  0.33999418  0.77739006    -0.27200
C65         C  0.09988661  0.35091578  0.77918376    -0.02500
C66         C  0.06796907  0.32251931  0.78028408     0.06200
C67         C  0.07281908  0.29487038  0.77963396     0.04200
H68         H  0.10649220  0.37730729  0.78028284     0.09400
H69         H  0.05402073  0.26848645  0.78171899     0.08200
N70         N  0.03735579  0.32093359  0.78607518    -0.02400
C71         C  0.00675948  0.30215886  0.77809579     0.00200
C72         C  0.98156684  0.29634580  0.79010638    -0.22700
C73         C  0.99744975  0.31310130  0.80578345    -0.22900
C74         C  0.03172112  0.32786195  0.80290306     0.00100
H75         H  0.95473962  0.28405066  0.78725232     0.13900
H76         H  0.98540580  0.31646198  0.81740753     0.13900
N77         N  0.16862674  0.18125118  0.79083455    -0.02400
C78         C  0.18315046  0.16537047  0.78241179     0.00200
C79         C  0.17985293  0.13861497  0.79291276    -0.22700
C80         C  0.16224703  0.13772521  0.80798256    -0.22900
C81         C  0.15511750  0.16379614  0.80619298     0.00100
H82         H  0.18591028  0.11930536  0.78901120     0.13900
H83         H  0.15341799  0.11862143  0.81841097     0.13900
N84         N  0.31087153  0.45806419  0.78459062    -0.02400
C85         C  0.32447526  0.48825970  0.77599712     0.00200
C86         C  0.34490342  0.51432071  0.78771420    -0.22700
C87         C  0.34466991  0.49930415  0.80386296    -0.22900
C88         C  0.32353164  0.46473322  0.80152104     0.00100
H89         H  0.36079211  0.54091698  0.78442289     0.13900
H90         H  0.36046425  0.51188999  0.81547734     0.13900
N91         N  0.05465932  0.05552837  0.11655589    -0.26200
N92         N  0.06119768  0.03012312  0.11687089    -0.34100
C93         C  0.09488220  0.04287579  0.11695808     0.02100
C94         C  0.11033876  0.07795728  0.11641284     0.08200
C95         C  0.08424619  0.08529885  0.11625300    -0.04900
H96         H  0.10708659  0.02766286  0.11671592     0.08800
H97         H  0.08654868  0.11021746  0.11564058     0.10000
Cu98       Cu  0.02139946  0.48157606  0.12301840     0.44200
Cu99       Cu  0.00519098  0.04769251  0.11580267     0.42000
Cu100      Cu  0.43193441  0.45406968  0.12335532     0.43900
N101        N  0.98371505  0.43052497  0.12240893    -0.33600
N102        N  0.45087413  0.42056007  0.12284289    -0.27800
C103        C  0.43315734  0.38625676  0.12291155    -0.03900
C104        C  0.45581218  0.37446464  0.12181620     0.08300
C105        C  0.98791273  0.40313352  0.12172837     0.02100
H106        H  0.40593338  0.37119762  0.12354571     0.09700
H107        H  0.01208229  0.40418865  0.12128153     0.08800
N108        N  0.41961529  0.49272575  0.12309142    -0.35000
N109        N  0.45485646  0.03307079  0.11455317    -0.27200
C110        C  0.44070754  0.05305603  0.11423738    -0.02500
C111        C  0.40587436  0.03226899  0.11328626     0.06200
C112        C  0.38849774  0.48922231  0.12299474     0.04200
H113        H  0.45471832  0.08055874  0.11486424     0.09400
H114        H  0.36510843  0.46514255  0.12300150     0.08200
N115        N  0.38057994  0.04243214  0.11451642    -0.02400
C116        C  0.34955716  0.02794563  0.10637367     0.00200
C117        C  0.33244324  0.04430978  0.11205100    -0.22700
C118        C  0.35284382  0.06873063  0.12418841    -0.22900
C119        C  0.38236706  0.06758952  0.12517246     0.00100
H120        H  0.30828411  0.04024666  0.10725899     0.13900
H121        H  0.34671380  0.08548410  0.13151425     0.13900
N122        N  0.14615080  0.10150957  0.11536907    -0.02400
C123        C  0.16247155  0.13004043  0.10503193     0.00200
C124        C  0.19705796  0.14512825  0.10776953    -0.22700
C125        C  0.20246253  0.12566424  0.11991790    -0.22900
C126        C  0.17113740  0.09916998  0.12439118     0.00100
H127        H  0.21646779  0.16762369  0.10119120     0.13900
H128        H  0.22671622  0.13010012  0.12486769     0.13900
N129        N  0.44837544  0.33959034  0.12216216    -0.02400
C130        C  0.46390734  0.32553500  0.11278430     0.00200
C131        C  0.45100112  0.29191119  0.11798743    -0.22700
C132        C  0.42753946  0.28528626  0.13095581    -0.22900
C133        C  0.42572676  0.31452875  0.13294846     0.00100
H134        H  0.45640385  0.27331134  0.11221667     0.13900
H135        H  0.41244033  0.26125740  0.13771026     0.13900
N136        N  0.28376022  0.09580022  0.19431101    -0.26200
N137        N  0.26608629  0.10946408  0.20045550    -0.34100
C138        C  0.23304135  0.08545717  0.20075459     0.02100
C139        C  0.23023628  0.05546909  0.19453788     0.08200
C140        C  0.26254975  0.06289706  0.19031876    -0.04900
H141        H  0.21281768  0.08966360  0.20494855     0.08800
H142        H  0.27012453  0.04564544  0.18487601     0.10000
Cu143      Cu  0.28864681  0.16084280  0.20685146     0.44200
Cu144      Cu  0.33627857  0.12196474  0.19232972     0.42000
Cu145      Cu  0.38112926  0.21169651  0.20093227     0.43900
N146        N  0.31651348  0.21369085  0.20727310    -0.33600
N147        N  0.34931212  0.23201360  0.20420494    -0.27800
C148        C  0.35766009  0.26482891  0.20215267    -0.03900
C149        C  0.32892531  0.26735477  0.20459994     0.08300
C150        C  0.30335994  0.23441215  0.20758515     0.02100
H151        H  0.38238562  0.28463650  0.19822351     0.09700
H152        H  0.27664409  0.22555630  0.20803178     0.08800
N153        N  0.40575192  0.18395308  0.19685401    -0.35000
N154        N  0.38889419  0.15091756  0.19332900    -0.27200
C155        C  0.41098844  0.13981990  0.19105438    -0.02500
C156        C  0.44333216  0.16715986  0.19337136     0.06200
C157        C  0.43920784  0.19483130  0.19701546     0.04200
H158        H  0.40385799  0.11372008  0.18816373     0.09400
H159        H  0.45891490  0.22082748  0.19939837     0.08200
N160        N  0.20016061  0.02309746  0.19202688    -0.02400
C161        C  0.19065659  0.99572252  0.20284609     0.00200
C162        C  0.16937621  0.96637933  0.19324323    -0.22700
C163        C  0.16508641  0.97620853  0.17638249    -0.22900
C164        C  0.18456594  0.01121911  0.17590088     0.00100
H165        H  0.15464098  0.94104052  0.19872230     0.13900
H166        H  0.14687856  0.95986397  0.16637053     0.13900
N167        N  0.47465846  0.16684490  0.19153510    -0.02400
C168        C  0.50315845  0.18231802  0.20202264     0.00200
C169        C  0.52694363  0.17473353  0.19530105    -0.22700
C170        C  0.51325455  0.15492623  0.18031953    -0.22900
C171        C  0.48112115  0.14991173  0.17855470     0.00100
H172        H  0.04988664  0.17891960  0.20146525     0.13900
H173        H  0.52496702  0.14419449  0.17204773     0.13900
N174        N  0.32373061  0.29532629  0.19991375    -0.02400
C175        C  0.30440795  0.30496650  0.20912413     0.00200
C176        C  0.29786271  0.32618489  0.19844285    -0.22700
C177        C  0.31430856  0.33026553  0.18247339    -0.22900
C178        C  0.33049182  0.31156012  0.18391844     0.00100
H179        H  0.28631620  0.34080469  0.20270953     0.13900
H180        H  0.31658465  0.34725885  0.17166058     0.13900
N181        N  0.21975813  0.40477398  0.03540329    -0.26200
N182        N  0.19711799  0.41490342  0.03509371    -0.34100
C183        C  0.21332624  0.44921514  0.03511199     0.02100
C184        C  0.24771993  0.46098992  0.03568156     0.08200
C185        C  0.25100133  0.43227449  0.03588810    -0.04900
H186        H  0.20101146  0.46433667  0.03508891     0.08800
H187        H  0.27423980  0.43139675  0.03626821     0.10000
Cu188      Cu  0.14511337  0.38094547  0.03540195     0.44200
Cu189      Cu  0.20671218  0.35373703  0.03497289     0.42000
Cu190      Cu  0.11775778  0.28979946  0.03358972     0.43900
N191        N  0.09463325  0.34206484  0.03540313    -0.33600
N192        N  0.08476133  0.30924993  0.03392898    -0.27800
C193        C  0.05074623  0.29130214  0.03299554    -0.03900
C194        C  0.03880580  0.31388692  0.03431965     0.08300
C195        C  0.06713498  0.34578706  0.03584920     0.02100
H196        H  0.03594724  0.26395668  0.03148180     0.09700
H197        H  0.06776726  0.36994247  0.03647690     0.08800
N198        N  0.15646867  0.27788058  0.03455773    -0.35000
N199        N  0.18883632  0.30155154  0.03475111    -0.27200
C200        C  0.20775702  0.28642127  0.03497386    -0.02500
C201        C  0.18631743  0.25161677  0.03524966     0.06200
C202        C  0.15393011  0.24685464  0.03485518     0.04200
H203        H  0.23507254  0.29979472  0.03500505     0.09400
H204        H  0.13045891  0.22286197  0.03450668     0.08200
N205        N  0.27460021  0.49597204  0.03624758    -0.02400
C206        C  0.30362037  0.50940034  0.04617910     0.00200
C207        C  0.32671181  0.03794583  0.03172667    -0.22700
C208        C  0.30804611  0.04494431  0.01972410    -0.22900
C209        C  0.27617353  0.52214138  0.02654074     0.00100
H210        H  0.35201589  0.05591133  0.03630941     0.13900
H211        H  0.31653763  0.06847008  0.01244124     0.13900
N212        N  0.19627639  0.22611093  0.03438195    -0.02400
C213        C  0.18556535  0.19733575  0.04438678     0.00200
C214        C  0.20226075  0.18033272  0.03906301    -0.22700
C215        C  0.22370094  0.19882910  0.02562844    -0.22900
C216        C  0.22002666  0.22692839  0.02319192     0.00100
H217        H  0.19946852  0.15698222  0.04463028     0.13900
H218        H  0.24019122  0.19243865  0.01837899     0.13900
N219        N  0.00430631  0.30635990  0.03245614    -0.02400
C220        C  0.98826732  0.31914992  0.04235183     0.00200
C221        C  0.45408350  0.30657034  0.03495443    -0.22700
C222        C  0.44955573  0.28496544  0.02104053    -0.22900
C223        C  0.98163020  0.28624612  0.01969237     0.00100
H224        H  0.43462109  0.31068308  0.04048571     0.13900
H225        H  0.42659647  0.27014334  0.01326208     0.13900
N226        N  0.38913369  0.18477981  0.94972972    -0.26200
N227        N  0.37489386  0.15122630  0.94837824    -0.34100
C228        C  0.39945105  0.14278665  0.94903432     0.02100
C229        C  0.43024666  0.17254829  0.95092394     0.08200
C230        C  0.42272052  0.19847506  0.95156533    -0.04900
H231        H  0.39514327  0.11706096  0.94876127     0.08800
H232        H  0.44028444  0.22538180  0.95315430     0.10000
Cu233      Cu  0.32229934  0.11872074  0.94715731     0.44200
Cu234      Cu  0.36390700  0.21236582  0.94959611     0.42000
Cu235      Cu  0.27547083  0.16486485  0.95140893     0.43900
N236        N  0.26937513  0.09504307  0.94801358    -0.33600
N237        N  0.25314413  0.11234395  0.94930317    -0.27800
C238        C  0.21988374  0.09047118  0.95055738    -0.03900
C239        C  0.21453551  0.05775800  0.94971563     0.08300
C240        C  0.24650225  0.06141703  0.94859140     0.02100
H241        H  0.20130311  0.09795129  0.95328290     0.09700
H242        H  0.25288194  0.04144539  0.94897965     0.08800
N243        N  0.30145786  0.21762119  0.95274544    -0.35000
N244        N  0.33466181  0.23562651  0.95132695    -0.27200
C245        C  0.34440821  0.26902408  0.95145613    -0.02500
C246        C  0.31579740  0.27184857  0.95332725     0.06200
C247        C  0.28899385  0.23889974  0.95411681     0.04200
H248        H  0.37016775  0.28953749  0.95014723     0.09400
H249        H  0.26244689  0.23097637  0.95490911     0.08200
N250        N  0.46306039  0.17604847  0.95389453    -0.02400
C251        C  0.47967912  0.16380162  0.94398767     0.00200
C252        C  0.01642276  0.18232597  0.94844494    -0.22700
C253        C  0.02038151  0.20172592  0.96324382    -0.22900
C254        C  0.48403583  0.19291570  0.96798800     0.00100
H255        H  0.03579601  0.17815179  0.94278899     0.13900
H256        H  0.04295414  0.21525598  0.97147914     0.13900
N257        N  0.31376874  0.30254369  0.95277295    -0.02400
C258        C  0.32901481  0.32887358  0.94106137     0.00200
C259        C  0.31988235  0.35314097  0.94497254    -0.22700
C260        C  0.29893467  0.34167133  0.95950550    -0.22900
C261        C  0.29512169  0.31036967  0.96377320     0.00100
H262        H  0.32602773  0.37586272  0.93741472     0.13900
H263        H  0.28689447  0.35421577  0.96589159     0.13900
N264        N  0.18345338  0.02788118  0.95454905    -0.02400
C265        C  0.15365869  0.01586732  0.94557288     0.00200
C266        C  0.12733524  0.99643886  0.95712391    -0.22700
C267        C  0.15098505  0.48736259  0.97024632    -0.22900
C268        C  0.17596399  0.01516319  0.97135026     0.00100
H269        H  0.11286089  0.46798006  0.94873066     0.13900
H270        H  0.13756644  0.47128088  0.98148566     0.13900
N271        N  0.44878206  0.44088722  0.61725279    -0.26200
N272        N  0.46991124  0.42920979  0.61978983    -0.34100
C273        C  0.45256145  0.39494489  0.62002916     0.02100
C274        C  0.41887309  0.38457442  0.61724736     0.08200
C275        C  0.41722027  0.41419260  0.61553808    -0.04900
H276        H  0.46384308  0.37898988  0.62149257     0.08800
H277        H  0.39484157  0.41622719  0.61335995     0.10000
Cu278      Cu  0.02235038  0.46021462  0.62066621     0.44200
Cu279      Cu  0.46475750  0.49298722  0.61631744     0.42000
Cu280      Cu  0.05688659  0.04154992  0.61247001     0.43900
N281        N  0.07367391  0.49376999  0.61932492    -0.33600
N282        N  0.08688952  0.01894850  0.61450712    -0.27800
C283        C  0.12089043  0.03376856  0.61576316    -0.03900
C284        C  0.12885406  0.00804883  0.61592898     0.08300
C285        C  0.09792441  0.48529667  0.61943169     0.02100
H286        H  0.13826573  0.06090733  0.61615520     0.09700
H287        H  0.09340382  0.45961207  0.62063044     0.08800
N288        N  0.02071444  0.05670262  0.61046255    -0.35000
N289        N  0.48772584  0.03534771  0.61020028    -0.27200
C290        C  0.47183440  0.05359927  0.61145826    -0.02500
C291        C  0.49607880  0.08775217  0.61251212     0.06200
C292        C  0.02666343  0.08873222  0.61219397     0.04200
H293        H  0.44483494  0.04265718  0.61276539     0.09400
H294        H  0.05123528  0.11044041  0.61512138     0.08200
N295        N  0.49177104  0.11480377  0.61958047    -0.02400
C296        C  0.00793895  0.14778658  0.61339700     0.00200
C297        C  0.50963903  0.16898508  0.62731130    -0.22700
C298        C  0.49249173  0.14873660  0.64165401    -0.22900
C299        C  0.48188856  0.11562139  0.63654561     0.00100
H300        H  0.51954402  0.19614984  0.62634988     0.13900
H301        H  0.48618432  0.15700669  0.65390258     0.13900
N302        N  0.16154301  0.01081813  0.61662584    -0.02400
C303        C  0.17254224  0.99596697  0.60483833     0.00200
C304        C  0.20225604  0.99845448  0.61128771    -0.22700
C305        C  0.20958957  0.01556176  0.62749028    -0.22900
C306        C  0.18447140  0.02355603  0.63019795     0.00100
H307        H  0.21870377  0.99190915  0.60410560     0.13900
H308        H  0.23202487  0.02344064  0.63568111     0.13900
N309        N  0.39103167  0.35016499  0.61609433    -0.02400
C310        C  0.36342143  0.33918250  0.60528811     0.00200
C311        C  0.34013998  0.30572512  0.60910481    -0.22700
C312        C  0.35428338  0.29547864  0.62238906    -0.22900
C313        C  0.38595519  0.32285794  0.62603356     0.00100
H314        H  0.31665599  0.28969647  0.60198028     0.13900
H315        H  0.34319585  0.27035454  0.62824202     0.13900
N316        N  0.40546536  0.20306927  0.69202263    -0.26200
N317        N  0.38660408  0.21684549  0.69580650    -0.34100
C318        C  0.40626187  0.25108333  0.69589205     0.02100
C319        C  0.43889324  0.25873645  0.69217836     0.08200
C320        C  0.43743939  0.22795303  0.68953440    -0.04900
H321        H  0.39743017  0.26870301  0.69864878     0.08800
H322        H  0.45784608  0.22385088  0.68568124     0.10000
Cu323      Cu  0.33493355  0.18782103  0.70056675     0.44200
Cu324      Cu  0.38810569  0.15111627  0.69106979     0.42000
Cu325      Cu  0.29978504  0.09653298  0.70131215     0.43900
N326        N  0.28354619  0.15311918  0.70323790    -0.33600
N327        N  0.27042672  0.11968401  0.70328534    -0.27800
C328        C  0.23642233  0.10472084  0.70297162    -0.03900
C329        C  0.22784412  0.13004067  0.70323996     0.08300
C330        C  0.25832209  0.16029678  0.70299728     0.02100
H331        H  0.21941381  0.07765537  0.70149710     0.09700
H332        H  0.26190968  0.18552533  0.70101201     0.08800
N333        N  0.33336405  0.07892359  0.69694577    -0.35000
N334        N  0.36543967  0.09850302  0.69263155    -0.27200
C335        C  0.37918377  0.07872783  0.68936240    -0.02500
C336        C  0.35443008  0.04518936  0.69198105     0.06200
C337        C  0.32583998  0.04627096  0.69671794     0.04200
H338        H  0.40496796  0.08817936  0.68527463     0.09400
H339        H  0.30093636  0.02489287  0.69887871     0.08200
N340        N  0.19576225  0.12677304  0.69833916    -0.02400
C341        C  0.18239059  0.14492790  0.70555742     0.00200
C342        C  0.15981738  0.14627188  0.69346268    -0.22700
C343        C  0.15790462  0.12691900  0.67882260    -0.22900
C344        C  0.17979110  0.11487283  0.68230389     0.00100
H345        H  0.14486255  0.15841269  0.69547628     0.13900
H346        H  0.14156203  0.12134382  0.66717133     0.13900
N347        N  0.35574565  0.01460037  0.68851182    -0.02400
C348        C  0.33949860  0.98562748  0.69819237     0.00200
C349        C  0.34435652  0.96062566  0.69054847    -0.22700
C350        C  0.36470983  0.97504368  0.67587276    -0.22900
C351        C  0.37158474  0.00834565  0.67504175     0.00100
H352        H  0.33755612  0.93611484  0.69631042     0.13900
H353        H  0.37591754  0.96354032  0.66779084     0.13900
N354        N  0.46882056  0.29158597  0.69116639    -0.02400
C355        C  0.49753307  0.30142715  0.70089201     0.00200
C356        C  0.52364661  0.33043491  0.69326836    -0.22700
C357        C  0.51034486  0.33873591  0.67869835    -0.22900
C358        C  0.47648781  0.31470564  0.67794695     0.00100
H359        H  0.54858730  0.34631671  0.69901956     0.13900
H360        H  0.52339116  0.36105167  0.67033070     0.13900
N361        N  0.08603470  0.07508856  0.37008352    -0.26200
N362        N  0.06536067  0.08753979  0.36816537    -0.34100
C363        C  0.08388410  0.12150161  0.36559113     0.02100
C364        C  0.11771169  0.13082518  0.36644450     0.08200
C365        C  0.11802789  0.10067999  0.36873241    -0.04900
H366        H  0.07347278  0.13784390  0.36266743     0.08800
H367        H  0.13992711  0.09740085  0.36864175     0.10000
Cu368      Cu  0.51256166  0.05811719  0.36788766     0.44200
Cu369      Cu  0.07149677  0.02380580  0.37338998     0.42000
Cu370      Cu  0.49196730  0.46852012  0.37728792     0.43900
N371        N  0.46141526  0.02115720  0.36837472    -0.33600
N372        N  0.45759250  0.48608643  0.37557611    -0.27800
C373        C  0.42371594  0.46674537  0.37561633    -0.03900
C374        C  0.41023851  0.48807242  0.37488528     0.08300
C375        C  0.43420225  0.02550465  0.36799476     0.02100
H376        H  0.40999039  0.43925339  0.37630086     0.09700
H377        H  0.43522943  0.04984671  0.36731738     0.08800
N378        N  0.52970282  0.45543147  0.37904273    -0.35000
N379        N  0.06197835  0.47750852  0.37712514    -0.27200
C380        C  0.07976661  0.46102211  0.37772223    -0.02500
C381        C  0.05731281  0.42691016  0.38078937     0.06200
C382        C  0.52606061  0.42435200  0.38142468     0.04200
H383        H  0.10671840  0.47284122  0.37576211     0.09400
H384        H  0.50202378  0.40120245  0.38251269     0.08200
N385        N  0.06373492  0.39885320  0.38019533    -0.02400
C386        C  0.04888584  0.37065732  0.39062263     0.00200
C387        C  0.05517776  0.34594283  0.38396807    -0.22700
C388        C  0.07532065  0.35969759  0.36921648    -0.22900
C389        C  0.08091661  0.39245940  0.36747358     0.00100
H390        H  0.04799274  0.32152815  0.38997909     0.13900
H391        H  0.08565431  0.34750575  0.36100251     0.13900
N392        N  0.14622471  0.16249244  0.36085788    -0.02400
C393        C  0.17771835  0.17628892  0.36830412     0.00200
C394        C  0.20157327  0.19172745  0.35496826    -0.22700
C395        C  0.18434522  0.19019812  0.33937753    -0.22900
C396        C  0.15054841  0.17273304  0.34352116     0.00100
H397        H  0.22867785  0.20463395  0.35649569     0.13900
H398        H  0.19532352  0.20209282  0.32671078     0.13900
N399        N  0.37489347  0.47773975  0.37399371    -0.02400
C400        C  0.35794394  0.48996713  0.38353028     0.00200
C401        C  0.32361807  0.47104616  0.37971691    -0.22700
C402        C  0.31913765  0.44676973  0.36746845    -0.22900
C403        C  0.35073394  0.45138682  0.36414590     0.00100
H404        H  0.30380968  0.47444801  0.38543868     0.13900
H405        H  0.29540434  0.42782259  0.36151283     0.13900
N406        N  0.11255044  0.28485291  0.28650366    -0.26200
N407        N  0.13271854  0.27167605  0.28679482    -0.34100
C408        C  0.11407859  0.23753827  0.28596187     0.02100
C409        C  0.08048367  0.22869571  0.28502232     0.08200
C410        C  0.08022274  0.25917691  0.28534281    -0.04900
H411        H  0.12431571  0.22055129  0.28613026     0.08800
H412        H  0.05828290  0.26238116  0.28518157     0.10000
Cu413      Cu  0.18483810  0.30014558  0.28873094     0.44200
Cu414      Cu  0.13119861  0.33752722  0.28841156     0.42000
Cu415      Cu  0.22506947  0.39013299  0.29213599     0.43900
N416        N  0.23667647  0.33065611  0.29135369    -0.33600
N417        N  0.25229534  0.36416159  0.29301788    -0.27800
C418        C  0.28584463  0.37604464  0.29503152    -0.03900
C419        C  0.29104533  0.34839620  0.29433744     0.08300
C420        C  0.25946812  0.32018449  0.29206352     0.02100
H421        H  0.30476506  0.40257330  0.29659817     0.09700
H422        H  0.25332303  0.29388860  0.29141862     0.08800
N423        N  0.19171113  0.40931059  0.29101798    -0.35000
N424        N  0.15826178  0.39094258  0.29011318    -0.27200
C425        C  0.14545644  0.41217002  0.29078410    -0.02500
C426        C  0.17215980  0.44531299  0.29153124     0.06200
C427        C  0.20090518  0.44244786  0.29208275     0.04200
H428        H  0.11882857  0.40399688  0.29114695     0.09400
H429        H  0.22662071  0.46292372  0.29395129     0.08200
N430        N  0.17120706  0.47591571  0.29559937    -0.02400
C431        C  0.19004106  0.50632942  0.28725577     0.00200
C432        C  0.19790649  0.53274458  0.29916419    -0.22700
C433        C  0.18165565  0.51831428  0.31490663    -0.22900
C434        C  0.16514429  0.48360806  0.31221691     0.00100
H435        H  0.16847644  0.04952285  0.27922706     0.13900
H436        H  0.18126271  0.53163671  0.32685837     0.13900
N437        N  0.32223731  0.34782792  0.29594859    -0.02400
C438        C  0.33210081  0.33076621  0.28490904     0.00200
C439        C  0.35982477  0.33020711  0.29215830    -0.22700
C440        C  0.36765650  0.34806608  0.30805862    -0.22900
C441        C  0.34414771  0.35846863  0.31007645     0.00100
H442        H  0.37456831  0.32056588  0.28579150     0.13900
H443        H  0.38919245  0.35433410  0.31671937     0.13900
N444        N  0.05171016  0.19468113  0.28499433    -0.02400
C445        C  0.02257135  0.18257609  0.27515191     0.00200
C446        C  0.00056030  0.14914087  0.28010162    -0.22700
C447        C  0.01627287  0.14061275  0.29321042    -0.22900
C448        C  0.04799757  0.16843571  0.29552519     0.00100
H449        H  0.97642869  0.13168367  0.27401641     0.13900
H450        H  0.00587243  0.11634316  0.29994755     0.13900
N451        N  0.34063623  0.13358793  0.44746871    -0.26200
N452        N  0.30815347  0.12425482  0.44700240    -0.34100
C453        C  0.28956148  0.09019367  0.44577841     0.02100
C454        C  0.31139796  0.07749600  0.44530670     0.08200
C455        C  0.34362207  0.10548068  0.44645848    -0.04900
H456        H  0.26226526  0.07591515  0.44519547     0.08800
H457        H  0.36727586  0.10542359  0.44679148     0.10000
Cu458      Cu  0.28952001  0.15739331  0.44832346     0.44200
Cu459      Cu  0.37898679  0.18425173  0.45025737     0.42000
Cu460      Cu  0.34702665  0.24246226  0.46061722     0.43900
N461        N  0.27510798  0.19366888  0.45108955    -0.33600
N462        N  0.29615514  0.22528074  0.45621640    -0.27800
C463        C  0.27904538  0.24227453  0.45756916    -0.03900
C464        C  0.24562016  0.21999052  0.45293253     0.08300
C465        C  0.24405353  0.18949005  0.44891411     0.02100
H466        H  0.29025630  0.26862976  0.46159886     0.09700
H467        H  0.22184643  0.16565320  0.44538996     0.08800
N468        N  0.39761747  0.25613920  0.46022457    -0.35000
N469        N  0.40981322  0.23612632  0.45574071    -0.27200
C470        C  0.44389585  0.25429866  0.45676241    -0.02500
C471        C  0.45321281  0.28732140  0.46168712     0.06200
C472        C  0.42329637  0.28712268  0.46439754     0.04200
H473        H  0.46042211  0.24391279  0.45481357     0.09400
H474        H  0.42023555  0.30742241  0.46993727     0.08200
N475        N  0.48560185  0.31344461  0.46814578    -0.02400
C476        C  0.50022776  0.34662895  0.46316573     0.00200
C477        C  0.01893556  0.36672705  0.47751246    -0.22700
C478        C  0.01718744  0.34518368  0.49101284    -0.22900
C479        C  0.49662896  0.31289789  0.48501993     0.00100
H480        H  0.03679461  0.39376871  0.47711195     0.13900
H481        H  0.03274356  0.35248001  0.50306166     0.13900
N482        N  0.21698936  0.22509714  0.45414527    -0.02400
C483        C  0.18833231  0.20860958  0.44412226     0.00200
C484        C  0.16475918  0.21689420  0.45010707    -0.22700
C485        C  0.17970119  0.23956565  0.46412221    -0.22900
C486        C  0.21201440  0.24465745  0.46603466     0.00100
H487        H  0.14079914  0.21016742  0.44373470     0.13900
H488        H  0.16910871  0.25284405  0.47118878     0.13900
N489        N  0.30216122  0.04222859  0.44448543    -0.02400
C490        C  0.31731193  0.02814575  0.43492591     0.00200
C491        C  0.29099598  0.48284433  0.43918535    -0.22700
C492        C  0.26475270  0.47668387  0.45016607    -0.22900
C493        C  0.27538274  0.01571454  0.45262808     0.00100
H494        H  0.29531926  0.46378498  0.43299171     0.13900
H495        H  0.24489470  0.45202618  0.45451893     0.13900
N496        N  0.10016219  0.29560701  0.53524187    -0.26200
N497        N  0.11625907  0.27839971  0.53786317    -0.34100
C498        C  0.09334707  0.24487338  0.53796546     0.02100
C499        C  0.06145570  0.24086887  0.53519584     0.08200
C500        C  0.06684794  0.27361802  0.53342943    -0.04900
H501        H  0.09975414  0.22494915  0.53855618     0.08800
H502        H  0.04843519  0.28125985  0.53041200     0.10000
Cu503      Cu  0.16912770  0.30102493  0.53860328     0.44200
Cu504      Cu  0.12346140  0.34811455  0.53233474     0.42000
Cu505      Cu  0.21243821  0.39299143  0.53096146     0.43900
N506        N  0.22176350  0.33174000  0.53661801    -0.33600
N507        N  0.23653943  0.36492184  0.53375024    -0.27800
C508        C  0.26978494  0.37754739  0.53176346    -0.03900
C509        C  0.27683437  0.35153517  0.53402940     0.08300
C510        C  0.24572900  0.32249543  0.53657032     0.02100
H511        H  0.28723952  0.40342713  0.52781867     0.09700
H512        H  0.24066200  0.29659430  0.53750738     0.08800
N513        N  0.18466330  0.41736383  0.52824846    -0.35000
N514        N  0.15132557  0.40053210  0.52891492    -0.27200
C515        C  0.13999026  0.42260196  0.52677853    -0.02500
C516        C  0.16765793  0.45471452  0.52471344     0.06200
C517        C  0.19567475  0.45069367  0.52560334     0.04200
H518        H  0.11365600  0.41572804  0.52646054     0.09400
H519        H  0.22189509  0.47018315  0.52458452     0.08200
N520        N  0.16646862  0.48534564  0.52148748    -0.02400
C521        C  0.15203171  0.49804429  0.53246314     0.00200
C522        C  0.14613241  0.02142712  0.51861909    -0.22700
C523        C  0.15939136  0.02401635  0.50175879    -0.22900
C524        C  0.17170093  0.50160855  0.50556571     0.00100
H525        H  0.13579159  0.03659013  0.52372953     0.13900
H526        H  0.16186548  0.04197531  0.49145452     0.13900
N527        N  0.30812573  0.35372658  0.52897386    -0.02400
C528        C  0.33858774  0.37775040  0.53571592     0.00200
C529        C  0.36225471  0.38918973  0.52206840    -0.22700
C530        C  0.34645767  0.37027313  0.50698212    -0.22900
C531        C  0.31358219  0.34835497  0.51178073     0.00100
H532        H  0.38924713  0.40576916  0.52365189     0.13900
H533        H  0.35815537  0.37082728  0.49433967     0.13900
N534        N  0.03140459  0.20943144  0.53027669    -0.02400
C535        C  0.02152474  0.17848531  0.53760163     0.00200
C536        C  0.99548075  0.15354371  0.52732871    -0.22700
C537        C  0.98848349  0.16978045  0.51371968    -0.22900
C538        C  0.01069600  0.20410113  0.51594466     0.00100
H539        H  0.47943681  0.12702275  0.53118126     0.13900
H540        H  0.46734158  0.15850998  0.50467489     0.13900
C541        C  0.22993900  0.51757745  0.49745129    -0.04700
C542        C  0.19609727  0.50368570  0.49199571     0.01200
C543        C  0.19013792  0.99399012  0.47063331    -0.07300
C544        C  0.21655211  0.00004050  0.45894531    -0.04700
C545        C  0.25052202  0.01700737  0.46473420     0.01200
C546        C  0.25504229  0.52094776  0.48552975    -0.07200
C547        C  0.29070637  0.53343023  0.49256742     0.63100
H548        H  0.23653451  0.52554826  0.51129166     0.13800
H549        H  0.21082615  0.99056445  0.44526980     0.13800
C550        C  0.15363938  0.97385756  0.46430293     0.63400
F551        F  0.29275942  0.53699212  0.51107597    -0.21800
F552        F  0.31379086  0.07614499  0.48282218    -0.19100
F553        F  0.30118945  0.51058254  0.48808517    -0.18800
F554        F  0.13896236  0.99412641  0.46490870    -0.18900
F555        F  0.13052616  0.44909204  0.47809838    -0.19200
F556        F  0.15091664  0.96214141  0.44686913    -0.21900
C557        C  0.24829540  0.26177135  0.49323637    -0.04700
C558        C  0.23848439  0.27143745  0.47744614     0.01200
C559        C  0.25514335  0.30608645  0.47227301    -0.07300
C560        C  0.27927843  0.33046956  0.48403959    -0.04700
C561        C  0.28844057  0.32093875  0.50011996     0.01200
C562        C  0.27425349  0.28585935  0.50432898    -0.07200
C563        C  0.28665252  0.27197718  0.51940514     0.63100
H564        H  0.23650209  0.23495056  0.49652790     0.13800
H565        H  0.29144439  0.35726466  0.48071891     0.13800
C566        C  0.24854676  0.31700566  0.45408366     0.63400
F567        F  0.29617152  0.24997538  0.51215203    -0.21800
F568        F  0.26077392  0.25403198  0.53133267    -0.19100
F569        F  0.31412331  0.29678693  0.52880482    -0.18800
F570        F  0.25479177  0.29989186  0.44067309    -0.18900
F571        F  0.26919993  0.35156699  0.45127872    -0.19200
F572        F  0.21539280  0.30968014  0.45277346    -0.21900
C573        C  0.01322182  0.26904088  0.48281257    -0.04700
C574        C  0.49695387  0.28297106  0.49278211     0.01200
C575        C  0.48334422  0.26956953  0.50979509    -0.07300
C576        C  0.98702241  0.24258763  0.51642839    -0.04700
C577        C  0.00560580  0.23050542  0.50719648     0.01200
C578        C  0.01823197  0.24314810  0.48998366    -0.07200
C579        C  0.03759014  0.22982468  0.47957731     0.63100
H580        H  0.02352737  0.27984931  0.46983599     0.13800
H581        H  0.97705203  0.23192339  0.52947729     0.13800
C582        C  0.46430335  0.28306603  0.52038560     0.63400
F583        F  0.04780262  0.24550063  0.46304537    -0.21800
F584        F  0.01737704  0.19522145  0.47667162    -0.19100
F585        F  0.06601076  0.23571428  0.48930061    -0.18800
F586        F  0.43844846  0.28171096  0.50989998    -0.18900
F587        F  0.48598675  0.31638132  0.52549944    -0.19200
F588        F  0.45030301  0.26423895  0.53576511    -0.21900
C589        C  0.34191053  0.39546182  0.35527256    -0.04700
C590        C  0.35545821  0.42996369  0.35093604     0.01200
C591        C  0.36515890  0.44092779  0.33306398    -0.07300
C592        C  0.36084130  0.41661876  0.32003767    -0.04700
C593        C  0.34649888  0.38206561  0.32433512     0.01200
C594        C  0.33728311  0.37116859  0.34219895    -0.07200
C595        C  0.32169311  0.33390183  0.34720445     0.63100
H596        H  0.33374764  0.38753909  0.36891686     0.13800
H597        H  0.36838526  0.42431006  0.30630176     0.13800
C598        C  0.37898715  0.47782315  0.32766180     0.63400
F599        F  0.31234908  0.32832463  0.36505135    -0.21800
F600        F  0.34466991  0.32301032  0.34440718    -0.19100
F601        F  0.29318133  0.31464631  0.33671175    -0.18800
F602        F  0.40920318  0.49809857  0.33655542    -0.18900
F603        F  0.35626496  0.48838295  0.33196565    -0.19200
F604        F  0.38489622  0.48247436  0.30940106    -0.21900
C605        C  0.36352324  0.52164620  0.42900999    -0.04700
C606        C  0.34649081  0.04481479  0.42256965     0.01200
C607        C  0.34344613  0.05622715  0.40520596    -0.07300
C608        C  0.36108046  0.05182314  0.39099320    -0.04700
C609        C  0.37081886  0.51793741  0.39703065     0.01200
C610        C  0.37729313  0.51191055  0.41492474    -0.07200
C611        C  0.39577499  0.49263376  0.41915559     0.63100
H612        H  0.36550579  0.51446538  0.44266994     0.13800
H613        H  0.35708280  0.05782845  0.37741185     0.13800
C614        C  0.31917393  0.06920927  0.40101348     0.63400
F615        F  0.39802427  0.48852708  0.43746104    -0.21800
F616        F  0.42825791  0.51056903  0.41270578    -0.19100
F617        F  0.37914367  0.46062932  0.41139302    -0.18800
F618        F  0.33063634  0.10049873  0.40905663    -0.18900
F619        F  0.28714759  0.04655194  0.40703396    -0.19200
F620        F  0.31656879  0.07340169  0.38274767    -0.21900
C621        C  0.11209247  0.14826078  0.31722257    -0.04700
C622        C  0.12359265  0.17119161  0.33163844     0.01200
C623        C  0.11086758  0.19377484  0.33392132    -0.07300
C624        C  0.08561498  0.19147278  0.32209695    -0.04700
C625        C  0.07403288  0.16857642  0.30767690     0.01200
C626        C  0.08761551  0.14672741  0.30497832    -0.07200
C627        C  0.07724948  0.12268680  0.28897614     0.63100
H628        H  0.12267051  0.13171641  0.31558796     0.13800
H629        H  0.07525637  0.20821236  0.32370496     0.13800
C630        C  0.12558664  0.22179031  0.34796370     0.63400
F631        F  0.09762662  0.10826722  0.28735737    -0.21800
F632        F  0.07974891  0.14020141  0.27329658    -0.19100
F633        F  0.04440938  0.09653958  0.29088610    -0.18800
F634        F  0.15915693  0.24361042  0.34416134    -0.18900
F635        F  0.12289479  0.20817852  0.36490183    -0.19200
F636        F  0.10932093  0.24065696  0.34805859    -0.21900
C637        C  0.16875467  0.15794075  0.40052398    -0.04700
C638        C  0.18478245  0.18446148  0.38797474     0.01200
C639        C  0.20398989  0.21862351  0.39460372    -0.07300
C640        C  0.20561822  0.22425712  0.41319419    -0.04700
C641        C  0.18808269  0.19793912  0.42537342     0.01200
C642        C  0.16949885  0.16405652  0.41910111    -0.07200
C643        C  0.14984208  0.13358127  0.43120070     0.63100
H644        H  0.15512238  0.13194485  0.39593659     0.13800
H645        H  0.21988323  0.24989056  0.41848666     0.13800
C646        C  0.22211751  0.24983392  0.38264764     0.63400
F647        F  0.11586269  0.11840068  0.42682331    -0.21800
F648        F  0.15381794  0.14192877  0.44924802    -0.19100
F649        F  0.16054780  0.11027038  0.42850014    -0.18800
F650        F  0.20107573  0.24871929  0.36893974    -0.18900
F651        F  0.25080029  0.25154796  0.37568301    -0.19200
F652        F  0.23220935  0.27983473  0.39200891    -0.21900
C653        C  0.08804766  0.42467336  0.33946796    -0.04700
C654        C  0.10307591  0.41655705  0.35368466     0.01200
C655        C  0.13863739  0.43036764  0.35417591    -0.07300
C656        C  0.15789082  0.45098807  0.33990408    -0.04700
C657        C  0.14283172  0.45885416  0.32565295     0.01200
C658        C  0.10754884  0.44634802  0.32554372    -0.07200
C659        C  0.09090671  0.45703292  0.31118970     0.63100
H660        H  0.06092376  0.41415703  0.33950170     0.13800
H661        H  0.18506979  0.46189880  0.33993429     0.13800
C662        C  0.15644572  0.42497815  0.37012245     0.63400
F663        F  0.05637210  0.44194916  0.31353961    -0.21800
F664        F  0.09644057  0.44788809  0.29441819    -0.19100
F665        F  0.10439006  0.49191914  0.31191055    -0.18800
F666        F  0.14657439  0.39094047  0.37184310    -0.18900
F667        F  0.14851700  0.43616432  0.38554774    -0.19200
F668        F  0.19122367  0.44292471  0.36842111    -0.21900
C669        C  0.50354522  0.35845933  0.41212958    -0.04700
C670        C  0.03712065  0.36955854  0.40918140     0.01200
C671        C  0.05929543  0.37654253  0.42403029    -0.07300
C672        C  0.04580646  0.36918095  0.44131713    -0.04700
C673        C  0.51193774  0.35751700  0.44443497     0.01200
C674        C  0.49064124  0.35421274  0.42963342    -0.07200
C675        C  0.45509895  0.34797464  0.43153853     0.63100
H676        H  0.48676840  0.35320777  0.40068403     0.13800
H677        H  0.06212976  0.37192690  0.45262106     0.13800
C678        C  0.09715798  0.39219013  0.42173058     0.63400
F679        F  0.45051273  0.36987410  0.42038987    -0.21800
F680        F  0.44878628  0.35400384  0.44882936    -0.19100
F681        F  0.43224699  0.31485533  0.42657483    -0.18800
F682        F  0.10945640  0.42322598  0.41327374    -0.18900
F683        F  0.10432397  0.37111962  0.41161284    -0.19200
F684        F  0.11401752  0.39775375  0.43804371    -0.21900
C685        C  0.41634928  0.33870325  0.65524631    -0.04700
C686        C  0.41027245  0.32139757  0.63885604     0.01200
C687        C  0.42571458  0.30143865  0.63546244    -0.07300
C688        C  0.44631103  0.29903177  0.64889165    -0.04700
C689        C  0.45213315  0.31610633  0.66526951     0.01200
C690        C  0.43728549  0.33652870  0.66859444    -0.07200
C691        C  0.44334477  0.35568566  0.68619860     0.63100
H692        H  0.40419798  0.35364151  0.65755446     0.13800
H693        H  0.45862854  0.28423515  0.64662421     0.13800
C694        C  0.42186688  0.28399249  0.61750300     0.63400
F695        F  0.47746815  0.37798655  0.68872906    -0.21800
F696        F  0.43164486  0.33292363  0.70028401    -0.19100
F697        F  0.42687520  0.37435710  0.68653506    -0.18800
F698        F  0.44087856  0.26792795  0.61680239    -0.18900
F699        F  0.43273138  0.30792123  0.60400053    -0.19200
F700        F  0.38854124  0.25969137  0.61437017    -0.21900
C701        C  0.34311013  0.37126256  0.58677913    -0.04700
C702        C  0.36246048  0.35513068  0.58810124     0.01200
C703        C  0.37704722  0.35041841  0.57249582    -0.07300
C704        C  0.36974728  0.35991368  0.55588826    -0.04700
C705        C  0.34934564  0.37493114  0.55430714     0.01200
C706        C  0.33753832  0.38269509  0.57014177    -0.07200
C707        C  0.31960244  0.40313583  0.57016019     0.63100
H708        H  0.33228377  0.37493715  0.59886209     0.13800
H709        H  0.37883301  0.35415262  0.54377905     0.13800
C710        C  0.39920810  0.33420492  0.57318117     0.63400
F711        F  0.33053116  0.42526607  0.58467173    -0.21800
F712        F  0.28521249  0.38138637  0.57158684    -0.19100
F713        F  0.32630511  0.42258335  0.55482537    -0.18800
F714        F  0.38126148  0.30162277  0.58000234    -0.18900
F715        F  0.42717323  0.35365471  0.58392010    -0.19200
F716        F  0.41064421  0.33203915  0.55636570    -0.21900
C717        C  0.18329304  0.02555089  0.57628992    -0.04700
C718        C  0.16516579  0.99467601  0.58539513     0.01200
C719        C  0.13881988  0.46644862  0.58069019    -0.07300
C720        C  0.13434413  0.46859291  0.56203953    -0.04700
C721        C  0.15548701  0.49818241  0.55230207     0.01200
C722        C  0.17955362  0.02822040  0.55775734    -0.07200
C723        C  0.20267240  0.06194487  0.54860021     0.63100
H724        H  0.20124378  0.04768503  0.58390872     0.13800
H725        H  0.11462472  0.44670264  0.55496709     0.13800
C726        C  0.11648133  0.43264524  0.58976633     0.63400
F727        F  0.22705732  0.08519398  0.56027529    -0.21800
F728        F  0.18412975  0.07631003  0.54219867    -0.19100
F729        F  0.21921160  0.05687303  0.53456101    -0.18800
F730        F  0.08335983  0.42567349  0.58916033    -0.18900
F731        F  0.12565261  0.43208665  0.60746844    -0.19200
F732        F  0.11852813  0.40714782  0.58068355    -0.21900
C733        C  0.16264789  0.03385256  0.65825736    -0.04700
C734        C  0.18551426  0.04721062  0.64415273     0.01200
C735        C  0.20791231  0.08282134  0.64310122    -0.07300
C736        C  0.20645122  0.10407944  0.65637656    -0.04700
C737        C  0.18320217  0.09076670  0.67033318     0.01200
C738        C  0.16097537  0.05514403  0.67141171    -0.07200
C739        C  0.13521944  0.03980967  0.68622044     0.63100
H740        H  0.14568192  0.00659763  0.65866344     0.13800
H741        H  0.22279134  0.13141478  0.65570728     0.13800
C742        C  0.23222892  0.09839429  0.62762259     0.63400
F743        F  0.11655387  0.00466641  0.68502024    -0.21800
F744        F  0.11303716  0.05217871  0.68513053    -0.19100
F745        F  0.15161400  0.04823086  0.70271387    -0.18800
F746        F  0.21449288  0.08900922  0.61151318    -0.18900
F747        F  0.25543014  0.08727575  0.62793301    -0.19200
F748        F  0.24993155  0.13358752  0.62851747    -0.21900
C749        C  0.42168414  0.07284038  0.63909692    -0.04700
C750        C  0.45470784  0.08597078  0.64585259     0.01200
C751        C  0.46049879  0.07267999  0.66182742    -0.07300
C752        C  0.43252867  0.04700724  0.67090414    -0.04700
C753        C  0.39943800  0.03471911  0.66443653     0.01200
C754        C  0.39374371  0.04716981  0.64816277    -0.07200
C755        C  0.35834661  0.03335540  0.64053823     0.63100
H756        H  0.41793511  0.08344903  0.62681850     0.13800
H757        H  0.43617157  0.03656779  0.68328581     0.13800
C758        C  0.49600233  0.08531910  0.66903257     0.63400
F759        F  0.33911756  0.03990367  0.65232397    -0.21800
F760        F  0.34348231  0.99858139  0.63798764    -0.19100
F761        F  0.35845078  0.04804893  0.62419617    -0.18800
F762        F  0.51121342  0.11962218  0.67305684    -0.18900
F763        F  0.51479792  0.08030788  0.65623183    -0.19200
F764        F  0.49609457  0.06827908  0.68448158    -0.21900
C765        C  0.03806339  0.15533082  0.58453823    -0.04700
C766        C  0.01301019  0.15762825  0.59416033     0.01200
C767        C  0.49125687  0.16643751  0.58539213    -0.07300
C768        C  0.49726780  0.17572115  0.56726465    -0.04700
C769        C  0.02225268  0.17355020  0.55718956     0.01200
C770        C  0.04217619  0.16178378  0.56594705    -0.07200
C771        C  0.06731551  0.15478984  0.55649865     0.63100
H772        H  0.05403495  0.14752411  0.59146015     0.13800
H773        H  0.48131203  0.18339752  0.56014794     0.13800
C774        C  0.46041671  0.16443647  0.59424100     0.63400
F775        F  0.05883716  0.12130819  0.55942669    -0.21800
F776        F  0.09926263  0.17587800  0.56355279    -0.19100
F777        F  0.06817543  0.15987517  0.53816525    -0.18800
F778        F  0.47012247  0.18852885  0.60769542    -0.18900
F779        F  0.44059809  0.13234979  0.60137971    -0.19200
F780        F  0.44060679  0.17020156  0.58209768    -0.21900
C781        C  0.46735038  0.22725608  0.01059068    -0.04700
C782        C  0.98650654  0.26573143  0.00596944     0.01200
C783        C  0.00019361  0.27928244  0.98899388    -0.07300
C784        C  0.00031952  0.25724435  0.97579843    -0.04700
C785        C  0.48027936  0.21525959  0.98096527     0.01200
C786        C  0.46564891  0.20343478  0.99794361    -0.07200
C787        C  0.44837130  0.16586671  0.00251636     0.63100
H788        H  0.45586129  0.21882166  0.02362283     0.13800
H789        H  0.01132004  0.26704975  0.96279921     0.13800
C790        C  0.01380790  0.31662451  0.98477384     0.63400
F791        F  0.43530002  0.15954059  0.01967114    -0.21800
F792        F  0.47123404  0.15436727  0.00147582    -0.19100
F793        F  0.42208812  0.14767453  0.99051079    -0.18800
F794        F  0.04033480  0.33653446  0.99629746    -0.18900
F795        F  0.98856352  0.32470978  0.98681986    -0.19200
F796        F  0.02541171  0.32441306  0.96734883    -0.21900
C797        C  0.22166862  0.25491201  0.99434674    -0.04700
C798        C  0.23919863  0.25285390  0.00942718     0.01200
C799        C  0.27497224  0.27106865  0.00971682    -0.07300
C800        C  0.29208543  0.28868691  0.99426472    -0.04700
C801        C  0.27461739  0.28957739  0.97889428     0.01200
C802        C  0.23876977  0.27291822  0.97890405    -0.07200
C803        C  0.21712480  0.27192856  0.96298644     0.63100
H804        H  0.19427842  0.24078098  0.99426642     0.13800
H805        H  0.31945843  0.30198719  0.99411470     0.13800
C806        C  0.29544420  0.27127188  0.02597178     0.63400
F807        F  0.19445817  0.23840009  0.95860506    -0.21800
F808        F  0.23540753  0.28744540  0.94778072    -0.19100
F809        F  0.19922860  0.28790096  0.96769492    -0.18800
F810        F  0.30038953  0.24360724  0.02512632    -0.18900
F811        F  0.27913933  0.26995271  0.04174923    -0.19200
F812        F  0.32668141  0.30067925  0.02648413    -0.21900
C813        C  0.21072692  0.03549214  0.99898313    -0.04700
C814        C  0.20056107  0.01418739  0.98391559     0.01200
C815        C  0.21253149  0.99104951  0.98144086    -0.07300
C816        C  0.24783424  0.49832721  0.99760440    -0.04700
C817        C  0.25199471  0.51915957  0.01236742     0.01200
C818        C  0.23396595  0.53710331  0.01309367    -0.07200
C819        C  0.23612762  0.55831703  0.02934906     0.63100
H820        H  0.20010308  0.05193759  0.00088327     0.13800
H821        H  0.26164654  0.48463250  0.99751291     0.13800
C822        C  0.19854234  0.96439273  0.96658943     0.63400
F823        F  0.27580263  0.08257762  0.02848275    -0.21800
F824        F  0.23691848  0.03642118  0.04331184    -0.19100
F825        F  0.21200380  0.56831094  0.02856127    -0.18800
F826        F  0.20531781  0.97983629  0.94996333    -0.18900
F827        F  0.18593960  0.44443302  0.96808184    -0.19200
F828        F  0.23860829  0.45331096  0.97084118    -0.21900
C829        C  0.33575626  0.34111294  0.23450049    -0.04700
C830        C  0.30802236  0.31027690  0.22878251     0.01200
C831        C  0.28615168  0.28687287  0.24168886    -0.07300
C832        C  0.29498003  0.29392824  0.26001619    -0.04700
C833        C  0.32313501  0.32464171  0.26561748     0.01200
C834        C  0.34330122  0.34915241  0.25270900    -0.07200
C835        C  0.37297474  0.38359723  0.25805449     0.63100
H836        H  0.35180719  0.35895883  0.22441616     0.13800
H837        H  0.27952704  0.27547765  0.27002298     0.13800
C838        C  0.25319059  0.25498135  0.23705485     0.63400
F839        F  0.38646417  0.40483621  0.24339457    -0.21800
F840        F  0.39826672  0.37941281  0.26585340    -0.19100
F841        F  0.36260853  0.39960456  0.27010514    -0.18800
F842        F  0.25542738  0.22666115  0.24184830    -0.18900
F843        F  0.24478978  0.25276572  0.21902533    -0.19200
F844        F  0.22734002  0.25487290  0.24661457    -0.21900
C845        C  0.47958211  0.18350634  0.23213891    -0.04700
C846        C  0.50705815  0.19732961  0.22039143     0.01200
C847        C  0.03935179  0.21747518  0.22806600    -0.07300
C848        C  0.04461386  0.21529610  0.24652745    -0.04700
C849        C  0.01735693  0.19723209  0.25814507     0.01200
C850        C  0.48457143  0.18654809  0.25084240    -0.07200
C851        C  0.45403642  0.17671975  0.26242485     0.63100
H852        H  0.45404881  0.16856967  0.22709479     0.13800
H853        H  0.07032453  0.22627531  0.25135167     0.13800
C854        C  0.06948492  0.24205785  0.21706415     0.63400
F855        F  0.43872619  0.19504728  0.25696320    -0.21800
F856        F  0.46261536  0.18391562  0.28040190    -0.19100
F857        F  0.43109991  0.14239851  0.26039517    -0.18800
F858        F  0.06053961  0.24465648  0.19955666    -0.18900
F859        F  0.09342636  0.23185188  0.21699069    -0.19200
F860        F  0.08379131  0.27409278  0.22476984    -0.21900
C861        C  0.15367374  0.98624612  0.22830044    -0.04700
C862        C  0.18665216  0.99695017  0.22259577     0.01200
C863        C  0.21294453  0.00746350  0.23565672    -0.07300
C864        C  0.20787439  0.49664956  0.25724722    -0.04700
C865        C  0.19200422  0.51074205  0.26736031     0.01200
C866        C  0.14571594  0.98522864  0.24646585    -0.07200
C867        C  0.15581944  0.54028445  0.26778241     0.63100
H868        H  0.13380490  0.97824084  0.21823597     0.13800
H869        H  0.22034590  0.48501068  0.26423256     0.13800
C870        C  0.24876753  0.01644600  0.23137132     0.63400
F871        F  0.08745313  0.95999035  0.23699528    -0.21800
F872        F  0.17722315  0.56997945  0.27690221    -0.19100
F873        F  0.13372585  0.51625501  0.27964234    -0.18800
F874        F  0.27004001  0.05101211  0.23386762    -0.18900
F875        F  0.25196011  0.00779903  0.21404041    -0.19200
F876        F  0.23730114  0.46582079  0.23889328    -0.21900
C877        C  0.01179461  0.32311694  0.07319128    -0.04700
C878        C  0.99879432  0.33619174  0.06025639     0.01200
C879        C  0.98649583  0.35767177  0.06614694    -0.07300
C880        C  0.47594356  0.35650617  0.08348294    -0.04700
C881        C  0.48469627  0.33921288  0.09623265     0.01200
C882        C  0.00764971  0.32635373  0.09163256    -0.07200
C883        C  0.02588551  0.31520831  0.10473399     0.63100
H884        H  0.02318816  0.30827560  0.06907044     0.13800
H885        H  0.46066309  0.36753199  0.08725386     0.13800
C886        C  0.47823205  0.38023604  0.05274835     0.63400
F887        F  0.05986625  0.33172407  0.10065172    -0.21800
F888        F  0.51373911  0.28256152  0.10270241    -0.19100
F889        F  0.02311680  0.32318184  0.12232225    -0.18800
F890        F  0.44402141  0.36890245  0.05139510    -0.18900
F891        F  0.99375137  0.38200581  0.03666382    -0.19200
F892        F  0.49443503  0.41301329  0.05960752    -0.21900
C893        C  0.34362003  0.29548685  0.15479560    -0.04700
C894        C  0.35553209  0.31365335  0.17089776     0.01200
C895        C  0.39066851  0.33566338  0.17364964    -0.07300
C896        C  0.41313602  0.33590297  0.16077595    -0.04700
C897        C  0.40120457  0.31649904  0.14498423     0.01200
C898        C  0.36596362  0.29712483  0.14151360    -0.07200
C899        C  0.35207518  0.27940468  0.12357428     0.63100
H900        H  0.31657725  0.28014412  0.15268127     0.13800
H901        H  0.44016932  0.35117830  0.16292044     0.13800
C902        C  0.40413769  0.35978571  0.18967053     0.63400
F903        F  0.31750685  0.26619921  0.12212578    -0.21800
F904        F  0.35848133  0.25288449  0.12149201    -0.19100
F905        F  0.36712247  0.30248165  0.10979182    -0.18800
F906        F  0.39511837  0.34194904  0.20561276    -0.18900
F907        F  0.39090817  0.38136834  0.18921901    -0.19200
F908        F  0.43899715  0.37950452  0.18951416    -0.21900
C909        C  0.16667187  0.05286827  0.16770169    -0.04700
C910        C  0.18001579  0.03243688  0.16212357     0.01200
C911        C  0.18745185  0.03187613  0.14376935    -0.07300
C912        C  0.18052678  0.05144533  0.13152070    -0.04700
C913        C  0.16789927  0.07250776  0.13714561     0.01200
C914        C  0.16140391  0.07376462  0.15559029    -0.07200
C915        C  0.15096905  0.09853830  0.16260299     0.63100
H916        H  0.16113095  0.05289149  0.18180139     0.13800
H917        H  0.18685483  0.05209578  0.11749611     0.13800
C918        C  0.20505671  0.01293229  0.13739538     0.63400
F919        F  0.14649443  0.09599572  0.18101633    -0.21800
F920        F  0.12089164  0.09204116  0.15461348    -0.19100
F921        F  0.17566084  0.13151348  0.15875853    -0.18800
F922        F  0.18445421  0.97831525  0.13965129    -0.18900
F923        F  0.23464528  0.02374246  0.14717194    -0.19200
F924        F  0.21325217  0.01873380  0.11939917    -0.21900
C925        C  0.13985997  0.14886119  0.05930342    -0.04700
C926        C  0.16190470  0.18427374  0.05988692     0.01200
C927        C  0.17083395  0.20033040  0.07698972    -0.07300
C928        C  0.16208134  0.17965375  0.09244599    -0.04700
C929        C  0.14880203  0.14420281  0.09123121     0.01200
C930        C  0.13582586  0.12817545  0.07432991    -0.07200
C931        C  0.12120594  0.09017359  0.07139574     0.63100
H932        H  0.13169000  0.13719039  0.04616224     0.13800
H933        H  0.17072932  0.19145284  0.10552756     0.13800
C934        C  0.19127397  0.23873814  0.07912534     0.63400
F935        F  0.11574845  0.08148395  0.05335961    -0.21800
F936        F  0.09046739  0.07252248  0.07975175    -0.19100
F937        F  0.14300896  0.07980288  0.07805803    -0.18800
F938        F  0.17262427  0.25294177  0.07268393    -0.18900
F939        F  0.22127365  0.25177379  0.06991974    -0.19200
F940        F  0.19920216  0.24846570  0.09694067    -0.21900
C941        C  0.45145120  0.14411465  0.14984592    -0.04700
C942        C  0.45720193  0.12819447  0.16448728     0.01200
C943        C  0.44052193  0.09223431  0.16545915    -0.07300
C944        C  0.41673372  0.07317816  0.15203348    -0.04700
C945        C  0.41015881  0.08910146  0.13766692     0.01200
C946        C  0.42837272  0.12503924  0.13614642    -0.07200
C947        C  0.42387339  0.14315145  0.12005601     0.63100
H948        H  0.46503929  0.17166965  0.14932518     0.13800
H949        H  0.40263357  0.04565450  0.15276227     0.13800
C950        C  0.44734549  0.07417629  0.18076778     0.63400
F951        F  0.44881632  0.17706764  0.11953969    -0.21800
F952        F  0.39301654  0.14177438  0.12082601    -0.19100
F953        F  0.42548554  0.12787130  0.10432432    -0.18800
F954        F  0.44200677  0.08519785  0.19705906    -0.18900
F955        F  0.48039063  0.08106210  0.18012785    -0.19200
F956        F  0.42650248  0.03922099  0.17979454    -0.21900
C957        C  0.28538403  0.47590739  0.07438972    -0.04700
C958        C  0.31093041  0.49345613  0.06181751     0.01200
C959        C  0.34884596  0.00268948  0.05867302    -0.07300
C960        C  0.36023215  0.01049704  0.07656700    -0.04700
C961        C  0.32730481  0.49549577  0.09842832     0.01200
C962        C  0.29330613  0.47496301  0.09256792    -0.07200
C963        C  0.26460685  0.45367716  0.10516535     0.63100
H964        H  0.25913944  0.46554193  0.07056621     0.13800
H965        H  0.38714959  0.02390043  0.07920156     0.13800
C966        C  0.37415663  0.00717221  0.04446121     0.63400
F967        F  0.24729151  0.42052296  0.09886883    -0.21800
F968        F  0.24253447  0.46622312  0.10571200    -0.19100
F969        F  0.27602173  0.45315622  0.12239769    -0.18800
F970        F  0.39890705  0.04104784  0.04344985    -0.18900
F971        F  0.35911812  0.99623092  0.02771565    -0.19200
F972        F  0.38914175  0.98814249  0.04912112    -0.21900
C973        C  0.29906249  0.48455949  0.74583011    -0.04700
C974        C  0.32750543  0.49115429  0.75625674     0.01200
C975        C  0.35760333  0.49725605  0.74769479    -0.07300
C976        C  0.36297037  0.99949306  0.72847562    -0.04700
C977        C  0.33390335  0.98620011  0.71762739     0.01200
C978        C  0.30202184  0.97467073  0.72554611    -0.07200
C979        C  0.26877985  0.95803223  0.71519750     0.63100
H980        H  0.27601113  0.47928857  0.75249950     0.13800
H981        H  0.38701000  0.00793260  0.72203467     0.13800
C982        C  0.38844324  0.50158431  0.75807808     0.63400
F983        F  0.24821255  0.92571551  0.72191524    -0.21800
F984        F  0.27254966  0.95513241  0.69701058    -0.19100
F985        F  0.25290516  0.97695661  0.71746107    -0.18800
F986        F  0.37913431  0.47472734  0.76977035    -0.18900
F987        F  0.40320407  0.53178850  0.76761577    -0.19200
F988        F  0.41266994  0.50224751  0.74680944    -0.21900
C989        C  0.15478258  0.14003537  0.75404971    -0.04700
C990        C  0.18479509  0.16375146  0.76261683     0.01200
C991        C  0.21447910  0.18192924  0.75239625    -0.07300
C992        C  0.21250100  0.17628673  0.73367313    -0.04700
C993        C  0.18250188  0.15180914  0.72514756     0.01200
C994        C  0.15299437  0.13316070  0.73562371    -0.07200
C995        C  0.11971532  0.10516107  0.72781736     0.63100
H996        H  0.13260701  0.12594842  0.76217334     0.13800
H997        H  0.23482733  0.19093618  0.72574936     0.13800
C998        C  0.24877640  0.20672143  0.76039335     0.63400
F999        F  0.09686841  0.08650567  0.74106698    -0.21800
F1000       F  0.12524139  0.08278669  0.71792140    -0.19100
F1001       F  0.10489146  0.11903359  0.71703749    -0.18800
F1002       F  0.24866068  0.20877079  0.77889957    -0.18900
F1003       F  0.25952712  0.23877223  0.75341014    -0.19200
F1004       F  0.27166818  0.19652432  0.75581208    -0.21900
C1005       C  0.00960858  0.27824133  0.74850687    -0.04700
C1006       C  0.00180486  0.29976643  0.75834165     0.01200
C1007       C  0.49145766  0.32030218  0.74913270    -0.07300
C1008       C  0.48786120  0.31745482  0.73042668    -0.04700
C1009       C  0.49701322  0.29709811  0.72058819     0.01200
C1010       C  0.00886511  0.27793481  0.72955275    -0.07200
C1011       C  0.02209648  0.25823410  0.71932739     0.63100
H1012       H  0.01740886  0.26256165  0.75575885     0.13800
H1013       H  0.47964640  0.33280657  0.72311698     0.13800
C1014       C  0.48684761  0.34740432  0.75861800     0.63400
F1015       F  0.03424808  0.24253433  0.73075968    -0.21800
F1016       F  0.04818007  0.28010746  0.70834907    -0.19100
F1017       F  0.49786513  0.23339997  0.70927798    -0.18800
F1018       F  0.01837255  0.36929928  0.76859321    -0.18900
F1019       F  0.45820793  0.33235620  0.76899502    -0.19200
F1020       F  0.48345999  0.36885213  0.74655072    -0.21900
C1021       C  0.34370638  0.42468829  0.80798882    -0.04700
C1022       C  0.32428528  0.43911709  0.81339589     0.01200
C1023       C  0.30711398  0.42961328  0.82984192    -0.07300
C1024       C  0.31022180  0.40572869  0.84053333    -0.04700
C1025       C  0.32934580  0.39089338  0.83501587     0.01200
C1026       C  0.34607170  0.40008368  0.81834093    -0.07200
C1027       C  0.36572109  0.38443420  0.81041938     0.63100
H1028       H  0.35665519  0.43221142  0.79527695     0.13800
H1029       H  0.29717309  0.39788848  0.85321588     0.15000
C1030       C  0.28489499  0.44385822  0.83568208     0.63400
F1031       F  0.35198330  0.37051173  0.79379491    -0.21800
F1032       F  0.36535578  0.35905056  0.82087447    -0.19100
F1033       F  0.39895469  0.40963016  0.80818348    -0.18800
F1034       F  0.26004892  0.43638494  0.82280627    -0.18900
F1035       F  0.30412663  0.47876421  0.83773095    -0.19200
F1036       F  0.26928909  0.43019464  0.85184752    -0.21900
C1037       C  0.36971994  0.36297309  0.89708689    -0.04700
C1038       C  0.35107629  0.33407493  0.88618668     0.01200
C1039       C  0.33637637  0.30165895  0.89452261    -0.07300
C1040       C  0.33164631  0.29975014  0.91316528    -0.04700
C1041       C  0.34568041  0.32925843  0.92386944     0.01200
C1042       C  0.36917534  0.36052570  0.91587216    -0.07200
C1043       C  0.39283684  0.39214733  0.92655890     0.63100
H1044       H  0.38278326  0.38810802  0.89133645     0.13800
H1045       H  0.31481532  0.27514949  0.91887550     0.13800
C1046       C  0.32393934  0.26858269  0.88427488     0.63400
F1047       F  0.42546224  0.40455597  0.92057609    -0.21800
F1048       F  0.39265009  0.38557103  0.94472459    -0.19100
F1049       F  0.38388354  0.41687671  0.92401883    -0.18800
F1050       F  0.33224553  0.27390586  0.86629267    -0.18900
F1051       F  0.28926289  0.24870206  0.88577916    -0.19200
F1052       F  0.33875904  0.25101539  0.89158114    -0.21900
C1053       C  0.47808474  0.15720342  0.89331893    -0.04700
C1054       C  0.00037268  0.14510187  0.89126570     0.01200
C1055       C  0.00296519  0.12862488  0.90702425    -0.07300
C1056       C  0.98474793  0.12829131  0.92225118    -0.04700
C1057       C  0.47206677  0.14797862  0.92558081     0.01200
C1058       C  0.46796572  0.16380336  0.90992913    -0.07200
C1059       C  0.45654942  0.19004220  0.91033244     0.63100
H1060       H  0.47471550  0.16853354  0.88120432     0.13800
H1061       H  0.98630798  0.11580950  0.93436769     0.13800
C1062       C  0.02777014  0.11561584  0.90919918     0.63400
F1063       F  0.46087448  0.20617881  0.89395165    -0.21800
F1064       F  0.47519505  0.21508414  0.92288251    -0.19100
F1065       F  0.42259728  0.17421402  0.91414678    -0.18800
F1066       F  0.05896861  0.13861460  0.90236497    -0.18900
F1067       F  0.01521662  0.08461330  0.90068057    -0.19200
F1068       F  0.03293312  0.11083975  0.92709154    -0.21900
C1069       C  0.07682628  0.15289393  0.82975028    -0.04700
C1070       C  0.09106783  0.17098541  0.84565651     0.01200
C1071       C  0.12672519  0.18849702  0.84808892    -0.07300
C1072       C  0.14678265  0.18657579  0.83442855    -0.04700
C1073       C  0.13247801  0.16841863  0.81849312     0.01200
C1074       C  0.09681974  0.15136990  0.81601816    -0.07200
C1075       C  0.07810379  0.13122038  0.79938263     0.63100
H1076       H  0.04962368  0.14014817  0.82790406     0.13800
H1077       H  0.17395745  0.19901442  0.83614539     0.13800
C1078       C  0.14364059  0.20842015  0.86515542     0.63400
F1079       F  0.05638463  0.09777936  0.80410868    -0.21800
F1080       F  0.09913707  0.13150261  0.78620701    -0.19100
F1081       F  0.05928863  0.14477526  0.79218933    -0.18800
F1082       F  0.17758461  0.21817553  0.86596553    -0.18900
F1083       F  0.12828511  0.18865832  0.88005945    -0.19200
F1084       F  0.14131756  0.23763260  0.86584803    -0.21900
C1085       C  0.09291851  0.37754173  0.84077534    -0.04700
C1086       C  0.10624862  0.41089851  0.83434924     0.01200
C1087       C  0.09560508  0.41683825  0.81754604    -0.07300
C1088       C  0.07108860  0.38882656  0.80772661    -0.04700
C1089       C  0.05759573  0.35547716  0.81415236     0.01200
C1090       C  0.06847862  0.34946700  0.83089054    -0.07200
C1091       C  0.05468338  0.31364295  0.83804081     0.63100
H1092       H  0.10197498  0.37371359  0.85359066     0.13800
H1093       H  0.06225071  0.39271709  0.79487166     0.13800
C1094       C  0.11029119  0.45252823  0.81006429     0.63400
F1095       F  0.07057405  0.31325198  0.85392413    -0.21800
F1096       F  0.05948238  0.29392240  0.82557181    -0.19100
F1097       F  0.02054764  0.29937403  0.84128041    -0.18800
F1098       F  0.14496485  0.46730253  0.80874606    -0.18900
F1099       F  0.10285345  0.47201268  0.82133669    -0.19200
F1100       F  0.09734223  0.45253137  0.79315270    -0.21900
C1101       C  0.15625617  0.01912674  0.89436091    -0.04700
C1102       C  0.14906906  0.98585778  0.89055884     0.01200
C1103       C  0.14195369  0.96247840  0.90475458    -0.07300
C1104       C  0.14346908  0.97374569  0.92239837    -0.04700
C1105       C  0.15045325  0.00692294  0.92629106     0.01200
C1106       C  0.15556673  0.02968488  0.91204154    -0.07200
C1107       C  0.15905682  0.06444381  0.91454902     0.63100
H1108       H  0.16170542  0.03681529  0.88339854     0.13800
H1109       H  0.13959016  0.95666063  0.93347105     0.13800
C1110       C  0.15031493  0.42310183  0.89677398     0.63400
F1111       F  0.13603613  0.06719140  0.90342607    -0.21800
F1112       F  0.19129914  0.08928188  0.90993592    -0.19100
F1113       F  0.15280351  0.07012702  0.93192494    -0.18800
F1114       F  0.16092427  0.92531995  0.89445538    -0.18900
F1115       F  0.12163231  0.40621844  0.88610871    -0.19200
F1116       F  0.14503187  0.40422303  0.91227020    -0.21900
N1117       N  0.43638873  0.92646964  0.86264020    -0.26200
N1118       N  0.42699059  0.94987490  0.86255250    -0.34100
C1119       C  0.39298136  0.93417721  0.86247810     0.02100
C1120       C  0.38059567  0.89945166  0.86278140     0.08200
C1121       C  0.40858669  0.89532504  0.86292681    -0.04900
H1122       H  0.37846652  0.94710783  0.86242313     0.08800
H1123       H  0.40875787  0.87154403  0.86291332     0.10000
Cu1124     Cu  0.46648242  0.49625707  0.85816677     0.44200
Cu1125     Cu  0.48643353  0.93682953  0.86192472     0.42000
Cu1126     Cu  0.05291091  0.51907365  0.86430804     0.43900
N1127       N  0.50483587  0.54683710  0.86143854    -0.33600
N1128       N  0.03699637  0.55448490  0.86383445    -0.27800
C1129       C  0.05637815  0.58826048  0.86608144    -0.03900
C1130       C  0.03562262  0.60226560  0.86558367     0.08300
C1131       C  0.50299378  0.57565644  0.86248821     0.02100
H1132       H  0.08341530  0.60146034  0.86833612     0.09700
H1133       H  0.47995887  0.57684207  0.86146210     0.08800
N1134       N  0.06726784  0.48249340  0.86365959    -0.35000
N1135       N  0.03893355  0.95657602  0.86299844    -0.27200
C1136       C  0.05664339  0.94000042  0.86194169    -0.02500
C1137       C  0.09070574  0.96405571  0.86335611     0.06200
C1138       C  0.09913950  0.48852745  0.86412074     0.04200
H1139       H  0.04560704  0.91279806  0.86025520     0.09400
H1140       H  0.12108912  0.51364706  0.86459168     0.08200
N1141       N  0.11959958  0.95953729  0.86160037    -0.02400
C1142       C  0.15787365  0.47189860  0.86787711     0.00200
C1143       C  0.17274773  0.96958446  0.86459678    -0.22700
C1144       C  0.15833688  0.94879490  0.84985758    -0.22900
C1145       C  0.12568793  0.94297635  0.84836893     0.00100
H1146       H  0.19713766  0.97671587  0.87054244     0.13900
H1147       H  0.16949721  0.93697740  0.84198581     0.13900
N1148       N  0.04640464  0.63777129  0.86778345    -0.02400
C1149       C  0.03291509  0.65243933  0.87828493     0.00200
C1150       C  0.05208999  0.68757390  0.87694247    -0.22700
C1151       C  0.07781574  0.69478900  0.86537668    -0.22900
C1152       C  0.07430990  0.66400154  0.86022207     0.00100
H1153       H  0.04751271  0.70610592  0.88356899     0.13900
H1154       H  0.09638317  0.71982353  0.86078330     0.13900
N1155       N  0.34567920  0.87292865  0.86244918    -0.02400
C1156       C  0.33043279  0.84476729  0.87304307     0.00200
C1157       C  0.29646106  0.82582309  0.86829681    -0.22700
C1158       C  0.29078107  0.84241723  0.85448680    -0.22900
C1159       C  0.32122550  0.87123529  0.85121563     0.00100
H1160       H  0.27701979  0.80380582  0.87512354     0.13900
H1161       H  0.26666436  0.83524175  0.84816732     0.13900
N1162       N  0.22831690  0.89321335  0.77763923    -0.26200
N1163       N  0.24448873  0.87575523  0.77845045    -0.34100
C1164       C  0.27798847  0.89771219  0.78002264     0.02100
C1165       C  0.28291339  0.93036836  0.77963932     0.08200
C1166       C  0.25103415  0.92659598  0.77843457    -0.04900
H1167       H  0.29699194  0.89039737  0.78207909     0.08800
H1168       H  0.24470279  0.94658240  0.77932621     0.10000
Cu1169     Cu  0.22002471  0.82283977  0.77916862     0.44200
Cu1170     Cu  0.17597844  0.87210413  0.77815643     0.42000
Cu1171     Cu  0.13086337  0.78222241  0.78708944     0.43900
N1172       N  0.18958033  0.77064747  0.78286040    -0.33600
N1173       N  0.15728031  0.75607386  0.78706058    -0.27800
C1174       C  0.14534013  0.72273358  0.79023848    -0.03900
C1175       C  0.17131932  0.71603877  0.78737949     0.08300
C1176       C  0.19895310  0.74684492  0.78274314     0.02100
H1177       H  0.11976471  0.70505539  0.79415400     0.09700
H1178       H  0.22424447  0.75187603  0.78010856     0.08800
N1179       N  0.10763863  0.81124852  0.78412177    -0.35000
N1180       N  0.12367705  0.84439364  0.78103769    -0.27200
C1181       C  0.10100592  0.85532372  0.78092017    -0.02500
C1182       C  0.06934653  0.82729647  0.78355115     0.06200
C1183       C  0.07454105  0.80004964  0.78582196     0.04200
H1184       H  0.10722407  0.88157610  0.77955114     0.09400
H1185       H  0.05581158  0.77424258  0.78922266     0.08200
N1186       N  0.03833600  0.82663846  0.78750436    -0.02400
C1187       C  0.00863620  0.80638564  0.77889581     0.00200
C1188       C  0.98210771  0.79718283  0.79056814    -0.22700
C1189       C  0.99593376  0.81393188  0.80651234    -0.22900
C1190       C  0.03047014  0.83158865  0.80424771     0.00100
H1191       H  0.95545300  0.78202059  0.78747489     0.13900
H1192       H  0.98212920  0.81505499  0.81794401     0.13900
N1193       N  0.17119744  0.68444214  0.78972478    -0.02400
C1194       C  0.18754151  0.67326426  0.77908322     0.00200
C1195       C  0.18730559  0.64541478  0.78689795    -0.22700
C1196       C  0.16996919  0.63915346  0.80275119    -0.22900
C1197       C  0.15979908  0.66309362  0.80396662     0.00100
H1198       H  0.19569669  0.62926816  0.78084172     0.13900
H1199       H  0.16357835  0.61812734  0.81179750     0.13900
N1200       N  0.31291142  0.96143438  0.78457739    -0.02400
C1201       C  0.32618277  0.99056431  0.77498483     0.00200
C1202       C  0.34465897  0.01818027  0.78624861    -0.22700
C1203       C  0.34399487  0.00528273  0.80311844    -0.22900
C1204       C  0.32422974  0.97038050  0.80164812     0.00100
H1205       H  0.35897294  0.04465860  0.78243956     0.13900
H1206       H  0.35817196  0.01960339  0.81482491     0.13900
N1207       N  0.04457460  0.55686274  0.12272676    -0.26200
N1208       N  0.05453548  0.53397475  0.12333183    -0.34100
C1209       C  0.08852729  0.55013505  0.12342575     0.02100
C1210       C  0.10032666  0.58473505  0.12242877     0.08200
C1211       C  0.07196520  0.58827996  0.12206120    -0.04900
H1212       H  0.10339359  0.53758410  0.12370714     0.08800
H1213       H  0.07125923  0.61177271  0.12156104     0.10000
Cu1214     Cu  0.02435903  0.97874707  0.11585490     0.44200
Cu1215     Cu  0.99396912  0.54390393  0.12316869     0.42000
Cu1216     Cu  0.43844584  0.95953687  0.11510876     0.43900
N1217       N  0.98383590  0.92904890  0.11455856    -0.33600
N1218       N  0.45209445  0.92210500  0.11508738    -0.27800
C1219       C  0.43158884  0.88809631  0.11456396    -0.03900
C1220       C  0.45161305  0.87319456  0.11389807     0.08300
C1221       C  0.98486451  0.89985093  0.11386236     0.02100
H1222       H  0.40428704  0.87530821  0.11436921     0.09700
H1223       H  0.00773144  0.89828142  0.11375283     0.08800
N1224       N  0.43042470  0.00081252  0.11399496    -0.35000
N1225       N  0.44244594  0.52556591  0.12344259    -0.27200
C1226       C  0.42653494  0.54384197  0.12384617    -0.02500
C1227       C  0.39210145  0.52137898  0.12349782     0.06200
C1228       C  0.40024148  0.99938384  0.11316807     0.04200
H1229       H  0.43916612  0.57133086  0.12424061     0.09400
H1230       H  0.37604977  0.97614476  0.11311256     0.08200
N1231       N  0.36538599  0.52950640  0.12465165    -0.02400
C1232       C  0.33502889  0.51406561  0.11588661     0.00200
C1233       C  0.31547177  0.52757347  0.12192128    -0.22700
C1234       C  0.33416164  0.55180419  0.13457253    -0.22900
C1235       C  0.36484897  0.55305726  0.13564057     0.00100
H1236       H  0.29136927  0.52274532  0.11657328     0.13900
H1237       H  0.32681778  0.56798555  0.14154442     0.13900
N1238       N  0.13506246  0.61148851  0.12238724    -0.02400
C1239       C  0.14992734  0.63957225  0.11175200     0.00200
C1240       C  0.18382500  0.65928455  0.11644885    -0.22700
C1241       C  0.19014024  0.64300082  0.13012561    -0.22900
C1242       C  0.16001730  0.61389169  0.13348574     0.00100
H1243       H  0.20243874  0.68245542  0.11001547     0.13900
H1244       H  0.21432945  0.65090825  0.13655499     0.13900
N1245       N  0.44040233  0.83732529  0.11302180    -0.02400
C1246       C  0.45344073  0.82188198  0.10281413     0.00200
C1247       C  0.43638174  0.78723040  0.10621041    -0.22700
C1248       C  0.41292709  0.78132848  0.11910087    -0.22900
C1249       C  0.41522807  0.81224629  0.12276994     0.00100
H1250       H  0.44000332  0.76798123  0.09973493     0.13900
H1251       H  0.39676012  0.75714820  0.12541992     0.13900
N1252       N  0.27784377  0.60793488  0.19964979    -0.26200
N1253       N  0.26073952  0.62432377  0.20087419    -0.34100
C1254       C  0.22737126  0.60128520  0.20118046     0.02100
C1255       C  0.22386438  0.56911809  0.20046846     0.08200
C1256       C  0.25617248  0.57423027  0.19938145    -0.04900
H1257       H  0.20741958  0.60750517  0.20181800     0.08800
H1258       H  0.26340582  0.55503939  0.19780562     0.10000
Cu1259     Cu  0.28530737  0.67752890  0.20183141     0.44200
Cu1260     Cu  0.32994398  0.63199187  0.19772761     0.42000
Cu1261     Cu  0.37906227  0.72335743  0.20096057     0.43900
N1262       N  0.31629168  0.73054425  0.20180721    -0.33600
N1263       N  0.34974069  0.74705789  0.20122218    -0.27800
C1264       C  0.36096375  0.78070379  0.19971372    -0.03900
C1265       C  0.33334611  0.78558508  0.19987938     0.08300
C1266       C  0.30552494  0.75327429  0.20083994     0.02100
H1267       H  0.38710355  0.79981110  0.19792456     0.09700
H1268       H  0.27933737  0.74642587  0.19950191     0.08800
N1269       N  0.40076751  0.69231144  0.19907165    -0.35000
N1270       N  0.38224111  0.65887311  0.19723469    -0.27200
C1271       C  0.40261531  0.64563528  0.19534922    -0.02500
C1272       C  0.43563792  0.67197935  0.19622884     0.06200
C1273       C  0.43373885  0.70128346  0.19865965     0.04200
H1274       H  0.39380554  0.61882654  0.19366006     0.09400
H1275       H  0.45460582  0.72711031  0.19958115     0.08200
N1276       N  0.19330922  0.53673335  0.19895251    -0.02400
C1277       C  0.18417086  0.50965505  0.20989238     0.00200
C1278       C  0.15599627  0.48146718  0.20278173    -0.22700
C1279       C  0.14787382  0.49156865  0.18693737    -0.22900
C1280       C  0.17130725  0.52558147  0.18491692     0.00100
H1281       H  0.14081267  0.45724945  0.20934814     0.13900
H1282       H  0.12591726  0.47646114  0.17850697     0.13900
N1283       N  0.46573897  0.66955059  0.19413933    -0.02400
C1284       C  0.49505669  0.68581010  0.20380962     0.00200
C1285       C  0.51819897  0.67764120  0.19676764    -0.22700
C1286       C  0.50266111  0.65565020  0.18268554    -0.22900
C1287       C  0.47040511  0.65058950  0.18165520     0.00100
H1288       H  0.04223366  0.68305788  0.20245908     0.13900
H1289       H  0.51295516  0.64290194  0.17488696     0.13900
N1290       N  0.33252792  0.81606134  0.19518613    -0.02400
C1291       C  0.31828958  0.83107357  0.20470509     0.00200
C1292       C  0.31832254  0.85682849  0.19460658    -0.22700
C1293       C  0.33320988  0.85781280  0.17851191    -0.22900
C1294       C  0.34213462  0.83292875  0.17939283     0.00100
H1295       H  0.31133391  0.87511493  0.19916047     0.13900
H1296       H  0.33865454  0.87590794  0.16777829     0.13900
N1297       N  0.21768600  0.90121858  0.03176700    -0.26200
N1298       N  0.19596603  0.91246882  0.03115772    -0.34100
C1299       C  0.21306680  0.94673484  0.03089404     0.02100
C1300       C  0.24721848  0.95744483  0.03152735     0.08200
C1301       C  0.24935387  0.92804539  0.03208345    -0.04900
H1302       H  0.20144550  0.96247264  0.03019268     0.08800
H1303       H  0.27210948  0.92626239  0.03216460     0.10000
Cu1304     Cu  0.14404600  0.88007302  0.03043430     0.44200
Cu1305     Cu  0.20220878  0.84951520  0.03153054     0.42000
Cu1306     Cu  0.11172409  0.78784183  0.03009989     0.43900
N1307       N  0.09314918  0.84364943  0.02894902    -0.33600
N1308       N  0.08120012  0.81034431  0.02817556    -0.27800
C1309       C  0.04732357  0.79457816  0.02603857    -0.03900
C1310       C  0.03785709  0.81925915  0.02574903     0.08300
C1311       C  0.06734621  0.84995278  0.02765101     0.02100
H1312       H  0.03101085  0.76734746  0.02490959     0.09700
H1313       H  0.07001081  0.87504554  0.02748237     0.08800
N1314       N  0.14928351  0.77413048  0.03237465    -0.35000
N1315       N  0.18195651  0.79693734  0.03246820    -0.27200
C1316       C  0.19988556  0.78083715  0.03380703    -0.02500
C1317       C  0.17757729  0.74629147  0.03493389     0.06200
C1318       C  0.14561630  0.74267606  0.03384097     0.04200
H1319       H  0.22716030  0.79347334  0.03416697     0.09400
H1320       H  0.12168859  0.71915332  0.03396025     0.08200
N1321       N  0.27496412  0.99182802  0.03006314    -0.02400
C1322       C  0.30601935  0.00514471  0.03796488     0.00200
C1323       C  0.32317457  0.54388810  0.04258599    -0.22700
C1324       C  0.30610523  0.55174298  0.02994525    -0.22900
C1325       C  0.27622559  0.01669539  0.01931424     0.00100
H1326       H  0.34672414  0.56192169  0.04903047     0.13900
H1327       H  0.31487285  0.57631930  0.02376548     0.13900
N1328       N  0.18652834  0.71995759  0.03571985    -0.02400
C1329       C  0.17383857  0.69154756  0.04619319     0.00200
C1330       C  0.18916070  0.67267663  0.04176542    -0.22700
C1331       C  0.21181753  0.68970565  0.02855305    -0.22900
C1332       C  0.21044900  0.71890079  0.02544584     0.00100
H1333       H  0.18496188  0.64922146  0.04791048     0.13900
H1334       H  0.22776014  0.68174537  0.02198071     0.13900
N1335       N  0.00464963  0.81467956  0.02266937    -0.02400
C1336       C  0.98922908  0.82849537  0.03222675     0.00200
C1337       C  0.45774502  0.81930929  0.02470150    -0.22700
C1338       C  0.45462494  0.80068891  0.00961292    -0.22900
C1339       C  0.98411550  0.79890942  0.00835219     0.00100
H1340       H  0.43834545  0.82387560  0.02988585     0.13900
H1341       H  0.43309412  0.78900338  0.00053128     0.13900
N1342       N  0.39349419  0.69139237  0.94389018    -0.26200
N1343       N  0.38123733  0.65803457  0.94391170    -0.34100
C1344       C  0.40727385  0.65178270  0.94336562     0.02100
C1345       C  0.43703353  0.68281851  0.94291143     0.08200
C1346       C  0.42732898  0.70720708  0.94332677    -0.04900
H1347       H  0.40478819  0.62678738  0.94398933     0.08800
H1348       H  0.44359707  0.73451073  0.94360119     0.10000
Cu1349     Cu  0.32943188  0.62343455  0.94570242     0.44200
Cu1350     Cu  0.36515966  0.71561870  0.94633418     0.42000
Cu1351     Cu  0.27752400  0.66362024  0.95393179     0.43900
N1352       N  0.27670264  0.59673059  0.94759350    -0.33600
N1353       N  0.25833800  0.61141210  0.95055257    -0.27800
C1354       C  0.22565918  0.58717471  0.95165589    -0.03900
C1355       C  0.22311013  0.55583012  0.94889784     0.08300
C1356       C  0.25602213  0.56268649  0.94678109     0.02100
H1357       H  0.20546772  0.59192973  0.95515783     0.09700
H1358       H  0.26467185  0.54460314  0.94531010     0.08800
N1359       N  0.30161537  0.71665651  0.95491632    -0.35000
N1360       N  0.33410643  0.73601948  0.95145478    -0.27200
C1361       C  0.34225230  0.76898763  0.95193958    -0.02500
C1362       C  0.31343516  0.77030789  0.95604084     0.06200
C1363       C  0.28812860  0.73672261  0.95790670     0.04200
H1364       H  0.36709937  0.79028041  0.94931292     0.09400
H1365       H  0.26175059  0.72742656  0.96056717     0.08200
N1366       N  0.47117227  0.68923894  0.94481075    -0.02400
C1367       C  0.48750463  0.67622166  0.93532586     0.00200
C1368       C  0.02029908  0.68949580  0.94167678    -0.22700
C1369       C  0.02478944  0.71224016  0.95490747    -0.22900
C1370       C  0.49475878  0.71210152  0.95641637     0.00100
H1371       H  0.03971950  0.68493979  0.93644713     0.13900
H1372       H  0.04795856  0.72849482  0.96223619     0.13900
N1373       N  0.30996478  0.80029295  0.95670640    -0.02400
C1374       C  0.32509076  0.82832660  0.94600971     0.00200
C1375       C  0.31602089  0.85190624  0.95148698    -0.22700
C1376       C  0.29518321  0.83833929  0.96590311    -0.22900
C1377       C  0.29127265  0.80651542  0.96854688     0.00100
H1378       H  0.32200536  0.87558469  0.94498035     0.13900
H1379       H  0.28321827  0.84993241  0.97327829     0.13900
N1380       N  0.19367438  0.52355959  0.95272604    -0.02400
C1381       C  0.16483551  0.50840755  0.94270119     0.00200
C1382       C  0.13811742  0.48617196  0.95333070    -0.22700
C1383       C  0.14151605  0.99598276  0.97345569    -0.22900
C1384       C  0.18506975  0.51023944  0.96938542     0.00100
H1385       H  0.10103456  0.98039757  0.95338169     0.13900
H1386       H  0.12836444  0.98061158  0.98495193     0.13900
N1387       N  0.45022604  0.93085161  0.61120220    -0.26200
N1388       N  0.47136990  0.91901767  0.61294160    -0.34100
C1389       C  0.45362032  0.88481540  0.61423143     0.02100
C1390       C  0.41969168  0.87481261  0.61300967     0.08200
C1391       C  0.41839274  0.90453724  0.61118903    -0.04900
H1392       H  0.46463815  0.86868338  0.61599744     0.08800
H1393       H  0.39614207  0.90712587  0.61067989     0.10000
Cu1394     Cu  0.02256987  0.95040205  0.61305898     0.44200
Cu1395     Cu  0.46572097  0.98253027  0.61002632     0.42000
Cu1396     Cu  0.05807356  0.55061820  0.61744801     0.43900
N1397       N  0.07370183  0.98548247  0.61416747    -0.33600
N1398       N  0.08764692  0.52727134  0.61852005    -0.27800
C1399       C  0.12162454  0.54119605  0.61838496    -0.03900
C1400       C  0.12869350  0.51478973  0.61869563     0.08300
C1401       C  0.09860775  0.97797718  0.61491956     0.02100
H1402       H  0.13957516  0.56819032  0.61804877     0.09700
H1403       H  0.09482666  0.95247822  0.61502644     0.08800
N1404       N  0.02225764  0.56656865  0.61682495    -0.35000
N1405       N  0.48852366  0.54626202  0.61677919    -0.27200
C1406       C  0.47367638  0.56548717  0.61844202    -0.02500
C1407       C  0.49873094  0.59943089  0.61936685     0.06200
C1408       C  0.02909815  0.59891720  0.61856827     0.04200
H1409       H  0.44683052  0.55536590  0.61999518     0.09400
H1410       H  0.05411890  0.62028488  0.62099465     0.08200
N1411       N  0.49566478  0.62741160  0.62631668    -0.02400
C1412       C  0.01293432  0.65981823  0.62014018     0.00200
C1413       C  0.51416663  0.68172318  0.63406081    -0.22700
C1414       C  0.49567941  0.66148203  0.64813189    -0.22900
C1415       C  0.48459987  0.62831983  0.64296536     0.00100
H1416       H  0.52502259  0.70901732  0.63327729     0.13900
H1417       H  0.48898033  0.66985449  0.66021318     0.13900
N1418       N  0.16095072  0.51649816  0.61977866    -0.02400
C1419       C  0.17059551  0.49851032  0.60934533     0.00200
C1420       C  0.20006530  0.50117689  0.61638960    -0.22700
C1421       C  0.20886154  0.52190362  0.63134127    -0.22900
C1422       C  0.18469902  0.53152698  0.63282352     0.00100
H1423       H  0.21577812  0.49266956  0.61005301     0.13900
H1424       H  0.23167813  0.53100276  0.63936578     0.13900
N1425       N  0.39120819  0.84098484  0.61486406    -0.02400
C1426       C  0.36119416  0.82834733  0.60607610     0.00200
C1427       C  0.33850973  0.79647760  0.61256254    -0.22700
C1428       C  0.35543562  0.78892771  0.62554841    -0.22900
C1429       C  0.38795235  0.81627556  0.62633494     0.00100
H1430       H  0.31322767  0.77958919  0.60750352     0.13900
H1431       H  0.34538975  0.76566991  0.63324508     0.13900
N1432       N  0.41135976  0.71230045  0.69701023    -0.26200
N1433       N  0.39302060  0.72744995  0.69561277    -0.34100
C1434       C  0.41392388  0.76127834  0.69368842     0.02100
C1435       C  0.44678326  0.76735320  0.69433708     0.08200
C1436       C  0.44425534  0.73592377  0.69639189    -0.04900
H1437       H  0.40577144  0.77978869  0.69192666     0.08800
H1438       H  0.46461134  0.73031846  0.69650968     0.10000
Cu1439     Cu  0.34035434  0.70073054  0.69664427     0.44200
Cu1440     Cu  0.39175736  0.65993206  0.69787961     0.42000
Cu1441     Cu  0.30105822  0.60881301  0.69989937     0.43900
N1442       N  0.28844153  0.66806284  0.69925445    -0.33600
N1443       N  0.27396440  0.63455740  0.70045963    -0.27800
C1444       C  0.24012503  0.62104989  0.70065511    -0.03900
C1445       C  0.23305558  0.64743018  0.70007256     0.08300
C1446       C  0.26423854  0.67671152  0.69871716     0.02100
H1447       H  0.22214258  0.59408088  0.70020507     0.09700
H1448       H  0.26886501  0.70218984  0.69617939     0.08800
N1449       N  0.33301125  0.58855988  0.69789853    -0.35000
N1450       N  0.36628245  0.60707685  0.69685573    -0.27200
C1451       C  0.37909951  0.58624008  0.69439408    -0.02500
C1452       C  0.35243570  0.55309055  0.69415890     0.06200
C1453       C  0.32371157  0.55550326  0.69629950     0.04200
H1454       H  0.40559754  0.59469264  0.69266500     0.09400
H1455       H  0.29787050  0.53505362  0.69569576     0.08200
N1456       N  0.20136088  0.64513470  0.69519522    -0.02400
C1457       C  0.18938083  0.66490669  0.70190826     0.00200
C1458       C  0.16894930  0.66832741  0.68912917    -0.22700
C1459       C  0.16640986  0.64818707  0.67472523    -0.22900
C1460       C  0.18610935  0.63393556  0.67897826     0.00100
H1461       H  0.15594048  0.68261337  0.69040266     0.13900
H1462       H  0.15097911  0.64350870  0.66276921     0.13900
N1463       N  0.35302799  0.52228126  0.69022270    -0.02400
C1464       C  0.33505551  0.49232413  0.69891117     0.00200
C1465       C  0.34009065  0.46778768  0.69073159    -0.22700
C1466       C  0.36278757  0.48361040  0.67711540    -0.22900
C1467       C  0.37057998  0.51718421  0.67726442     0.00100
H1468       H  0.33224055  0.44256098  0.69582107     0.13900
H1469       H  0.37458056  0.47260745  0.66911122     0.13900
N1470       N  0.47765355  0.79892969  0.69160628    -0.02400
C1471       C  0.50600794  0.81080468  0.70185874     0.00200
C1472       C  0.53185193  0.83968817  0.69404636    -0.22700
C1473       C  0.51876573  0.84566911  0.67858216    -0.22900
C1474       C  0.48524302  0.82060058  0.67766558     0.00100
H1475       H  0.55635475  0.85674087  0.69995447     0.13900
H1476       H  0.53158648  0.86727691  0.66972635     0.13900
N1477       N  0.09008146  0.57904830  0.37019376    -0.26200
N1478       N  0.06816441  0.59014489  0.37011104    -0.34100
C1479       C  0.08508685  0.62419934  0.36755028     0.02100
C1480       C  0.11919267  0.63476510  0.36651558     0.08200
C1481       C  0.12122371  0.60545671  0.36770687    -0.04900
H1482       H  0.07331852  0.63970992  0.36619628     0.08800
H1483       H  0.14361429  0.60327994  0.36626138     0.10000
Cu1484     Cu  0.51604195  0.55808870  0.37267246     0.44200
Cu1485     Cu  0.07867767  0.52881670  0.37310434     0.42000
Cu1486     Cu  0.48288571  0.96798202  0.37259078     0.43900
N1487       N  0.46601673  0.51857588  0.37453837    -0.33600
N1488       N  0.45100378  0.98823718  0.36969014    -0.27800
C1489       C  0.41706800  0.97070643  0.36998004    -0.03900
C1490       C  0.40559183  0.99368811  0.36907587     0.08300
C1491       C  0.43757877  0.52078354  0.37419223     0.02100
H1492       H  0.40199474  0.94340585  0.37150181     0.09700
H1493       H  0.43688224  0.54423024  0.37309770     0.08800
N1494       N  0.51760106  0.95137397  0.37620319    -0.35000
N1495       N  0.05045862  0.97125451  0.37602391    -0.27200
C1496       C  0.06579530  0.95233711  0.37685996    -0.02500
C1497       C  0.04099309  0.91828685  0.37752246     0.06200
C1498       C  0.51109772  0.91903628  0.37691013     0.04200
H1499       H  0.09275327  0.96242933  0.37595543     0.09400
H1500       H  0.48627399  0.89706511  0.37498363     0.08200
N1501       N  0.04482012  0.88923609  0.37373681    -0.02400
C1502       C  0.02781677  0.85826844  0.38178068     0.00200
C1503       C  0.02705567  0.83354660  0.37057657    -0.22700
C1504       C  0.04564563  0.84996166  0.35570457    -0.22900
C1505       C  0.05678437  0.88410821  0.35816913     0.00100
H1506       H  0.01548768  0.80660039  0.37325464     0.13900
H1507       H  0.05085564  0.83833160  0.34443352     0.13900
N1508       N  0.14663721  0.66761340  0.36152246    -0.02400
C1509       C  0.17822846  0.68184793  0.36879118     0.00200
C1510       C  0.20179854  0.70127557  0.35596800    -0.22700
C1511       C  0.18402092  0.70091648  0.34083176    -0.22900
C1512       C  0.15032745  0.68061683  0.34479499     0.00100
H1513       H  0.22889131  0.71588572  0.35770219     0.13900
H1514       H  0.19444574  0.71497865  0.32857375     0.13900
N1515       N  0.37086447  0.98550086  0.37007673    -0.02400
C1516       C  0.35712610  0.99987023  0.38058189     0.00200
C1517       C  0.32215822  0.98168562  0.37899679    -0.22700
C1518       C  0.31400878  0.95566899  0.36719844    -0.22900
C1519       C  0.34409818  0.95856600  0.36193756     0.00100
H1520       H  0.30437207  0.98675219  0.38588499     0.13900
H1521       H  0.28887303  0.93677274  0.36279071     0.13900
N1522       N  0.10361167  0.78426476  0.28741551    -0.26200
N1523       N  0.12516605  0.77279351  0.28769259    -0.34100
C1524       C  0.10807896  0.73862857  0.28721700     0.02100
C1525       C  0.07402799  0.72797397  0.28652307     0.08200
C1526       C  0.07185562  0.75743329  0.28662643    -0.04900
H1527       H  0.11970885  0.72288134  0.28714418     0.08800
H1528       H  0.04910298  0.75921643  0.28629255     0.10000
Cu1529     Cu  0.17702945  0.80375040  0.28826271     0.44200
Cu1530     Cu  0.12029250  0.83637322  0.28827129     0.42000
Cu1531     Cu  0.21432049  0.89386599  0.28712030     0.43900
N1532       N  0.22868402  0.83603057  0.28844187    -0.33600
N1533       N  0.24339466  0.86963055  0.28839272    -0.27800
C1534       C  0.27726851  0.88272674  0.28957565    -0.03900
C1535       C  0.28352413  0.85570851  0.29005247     0.08300
C1536       C  0.25230853  0.82668278  0.28940752     0.02100
H1537       H  0.29564189  0.90958286  0.29014431     0.09700
H1538       H  0.24706245  0.80066108  0.29020628     0.08800
N1539       N  0.17819708  0.90984053  0.28712793    -0.35000
N1540       N  0.14501905  0.88955135  0.28841248    -0.27200
C1541       C  0.13006057  0.90874617  0.28944960    -0.02500
C1542       C  0.15490660  0.94248146  0.28834139     0.06200
C1543       C  0.18500800  0.94239434  0.28688865     0.04200
H1544       H  0.10321289  0.89885010  0.29084414     0.09400
H1545       H  0.21009158  0.96437718  0.28633440     0.08200
N1546       N  0.15123661  0.97215433  0.28979676    -0.02400
C1547       C  0.16522294  0.99928918  0.27864143     0.00200
C1548       C  0.16144599  0.02542830  0.28558613    -0.22700
C1549       C  0.14387198  0.01360706  0.30135129    -0.22900
C1550       C  0.13687354  0.98035840  0.30333364     0.00100
H1551       H  0.21265365  0.55969779  0.29648456     0.13900
H1552       H  0.13656408  0.02767689  0.31016126     0.13900
N1553       N  0.31505836  0.85625178  0.29277182    -0.02400
C1554       C  0.32707174  0.84085486  0.28195170     0.00200
C1555       C  0.35139698  0.83660521  0.29087123    -0.22700
C1556       C  0.35479806  0.85029369  0.30772514    -0.22900
C1557       C  0.33192408  0.86177217  0.30862127     0.00100
H1558       H  0.36716697  0.82752816  0.28517938     0.13900
H1559       H  0.37385954  0.85405143  0.31765480     0.13900
N1560       N  0.04673687  0.69318819  0.28612351    -0.02400
C1561       C  0.01812118  0.67925107  0.27576070     0.00200
C1562       C  0.99910367  0.64467217  0.27941723    -0.22700
C1563       C  0.01590801  0.63733631  0.29243395    -0.22900
C1564       C  0.04540943  0.66719051  0.29593733     0.00100
H1565       H  0.97637029  0.62601464  0.27258392     0.13900
H1566       H  0.00788673  0.61262809  0.29827629     0.13900
N1567       N  0.33870353  0.62529034  0.44971983    -0.26200
N1568       N  0.30662551  0.61723282  0.44852074    -0.34100
C1569       C  0.28701542  0.58327220  0.44734843     0.02100
C1570       C  0.30775443  0.56924258  0.44759282     0.08200
C1571       C  0.34045445  0.59641233  0.44909586    -0.04900
H1572       H  0.25976696  0.56993970  0.44617651     0.08800
H1573       H  0.36353520  0.59528276  0.44993601     0.10000
Cu1574     Cu  0.29023080  0.65231970  0.44839420     0.44200
Cu1575     Cu  0.37748123  0.67573723  0.45261850     0.42000
Cu1576     Cu  0.34842737  0.74001235  0.45298005     0.43900
N1577       N  0.27537552  0.68851164  0.44983538    -0.33600
N1578       N  0.29643346  0.72139806  0.45220073    -0.27800
C1579       C  0.27830759  0.73739019  0.45417481    -0.03900
C1580       C  0.24435652  0.71300715  0.45261656     0.08300
C1581       C  0.24353854  0.68251636  0.44994086     0.02100
H1582       H  0.28897750  0.76434565  0.45666595     0.09700
H1583       H  0.22147062  0.65753054  0.44908937     0.08800
N1584       N  0.39854084  0.75085367  0.45446944    -0.35000
N1585       N  0.40908383  0.72837070  0.45515006    -0.27200
C1586       C  0.44275123  0.74504352  0.45829815    -0.02500
C1587       C  0.45379197  0.77953590  0.45909657     0.06200
C1588       C  0.42518510  0.78221706  0.45679186     0.04200
H1589       H  0.45771371  0.73285596  0.46038584     0.09400
H1590       H  0.42330051  0.80490799  0.45818603     0.08200
N1591       N  0.48578722  0.80644712  0.46562107    -0.02400
C1592       C  0.50253870  0.83831908  0.45878322     0.00200
C1593       C  0.02888824  0.85980155  0.47000322    -0.22700
C1594       C  0.02768741  0.84028785  0.48449497    -0.22900
C1595       C  0.50064557  0.80716936  0.48156130     0.00100
H1596       H  0.04926997  0.88519409  0.46714964     0.13900
H1597       H  0.04642012  0.84794451  0.49515655     0.13900
N1598       N  0.21494107  0.71648491  0.45496582    -0.02400
C1599       C  0.18549024  0.69816803  0.44579977     0.00200
C1600       C  0.16062086  0.70280124  0.45347008    -0.22700
C1601       C  0.17555516  0.72516484  0.46758238    -0.22900
C1602       C  0.20917508  0.73393209  0.46782250     0.00100
H1603       H  0.13554831  0.69426621  0.44805987     0.13900
H1604       H  0.16382229  0.73594227  0.47580602     0.13900
N1605       N  0.29689718  0.53352452  0.44686682    -0.02400
C1606       C  0.31045601  0.51781406  0.43731104     0.00200
C1607       C  0.30012081  0.99314472  0.43713437    -0.22700
C1608       C  0.27364774  0.98533493  0.44827522    -0.22900
C1609       C  0.26893404  0.50801047  0.45474535     0.00100
H1610       H  0.30593545  0.97509992  0.43095918     0.13900
H1611       H  0.25504623  0.96018014  0.45274085     0.13900
N1612       N  0.09657709  0.79752932  0.53561464    -0.26200
N1613       N  0.11296355  0.78112047  0.53963384    -0.34100
C1614       C  0.09050515  0.74782663  0.54149304     0.02100
C1615       C  0.05844297  0.74287018  0.53833728     0.08200
C1616       C  0.06322095  0.77495700  0.53455835    -0.04900
H1617       H  0.09736937  0.72842155  0.54337410     0.08800
H1618       H  0.04430722  0.78142774  0.53056474     0.10000
Cu1619     Cu  0.16536328  0.80323770  0.53945269     0.44200
Cu1620     Cu  0.12079886  0.84944498  0.53007193     0.42000
Cu1621     Cu  0.21193205  0.89387866  0.53062790     0.43900
N1622       N  0.21772042  0.83097693  0.53707198    -0.33600
N1623       N  0.23436296  0.86421215  0.53424692    -0.27800
C1624       C  0.26734634  0.87474679  0.53254248    -0.03900
C1625       C  0.27185030  0.84700126  0.53468831     0.08300
C1626       C  0.23983006  0.81939358  0.53705883     0.02100
H1627       H  0.28640627  0.90035711  0.52902780     0.09700
H1628       H  0.23288716  0.79288234  0.53792901     0.08800
N1629       N  0.18423105  0.91803201  0.52588928    -0.35000
N1630       N  0.15078999  0.90151098  0.52555426    -0.27200
C1631       C  0.14013065  0.92382013  0.52228208    -0.02500
C1632       C  0.16821112  0.95574496  0.52066437     0.06200
C1633       C  0.19586141  0.95141152  0.52285352     0.04200
H1634       H  0.11393694  0.91731842  0.52127111     0.09400
H1635       H  0.22222603  0.97083977  0.52254944     0.08200
N1636       N  0.16775523  0.98677563  0.51755715    -0.02400
C1637       C  0.15257240  0.99907919  0.52826196     0.00200
C1638       C  0.14660222  0.52141394  0.52318222    -0.22700
C1639       C  0.15962513  0.52412752  0.50625563    -0.22900
C1640       C  0.17258943  0.00242389  0.50150185     0.00100
H1641       H  0.13760421  0.53746962  0.52868927     0.13900
H1642       H  0.16283074  0.54281629  0.49624004     0.13900
N1643       N  0.30199124  0.84655991  0.52997289    -0.02400
C1644       C  0.33259041  0.86809955  0.53740303     0.00200
C1645       C  0.35701798  0.87861317  0.52417835    -0.22700
C1646       C  0.34123192  0.86119856  0.50869388    -0.22900
C1647       C  0.30765993  0.84139281  0.51283623     0.00100
H1648       H  0.38409381  0.89258125  0.52636890     0.13900
H1649       H  0.35330598  0.86061941  0.49639111     0.13900
N1650       N  0.02892045  0.71034439  0.53453746    -0.02400
C1651       C  0.01986903  0.68104031  0.54351458     0.00200
C1652       C  0.99398877  0.65395535  0.53425426    -0.22700
C1653       C  0.98666140  0.66717305  0.51929538    -0.22900
C1654       C  0.00837986  0.70185437  0.51987687     0.00100
H1655       H  0.48013982  0.62852526  0.53960186     0.13900
H1656       H  0.46693021  0.65352979  0.51035045     0.13900
C1657       C  0.23211231  0.02263851  0.49433040    -0.04700
C1658       C  0.19830131  0.00579079  0.48850673     0.01200
C1659       C  0.18680253  0.49368075  0.47391884    -0.07300
C1660       C  0.21204263  0.49783681  0.46181896    -0.04700
C1661       C  0.24589007  0.51133113  0.46734647     0.01200
C1662       C  0.25851921  0.02806199  0.48282675    -0.07200
C1663       C  0.29439819  0.04436230  0.49024737     0.63100
H1664       H  0.23764627  0.03144269  0.50811051     0.13800
H1665       H  0.20538796  0.48952252  0.44799905     0.13800
C1666       C  0.15023901  0.47739327  0.46770899     0.63400
F1667       F  0.29545149  0.04842292  0.50870921    -0.21800
F1668       F  0.31249549  0.56477471  0.48528687    -0.19100
F1669       F  0.30848640  0.02430877  0.48636785    -0.18800
F1670       F  0.13885239  0.50034266  0.46935171    -0.18900
F1671       F  0.13601170  0.94599515  0.47533962    -0.19200
F1672       F  0.14624939  0.46713780  0.44992953    -0.21900
C1673       C  0.24921769  0.75368296  0.49341161    -0.04700
C1674       C  0.23534761  0.76195461  0.47873494     0.01200
C1675       C  0.24598511  0.79652826  0.47489553    -0.07300
C1676       C  0.26949552  0.82183519  0.48650289    -0.04700
C1677       C  0.28272380  0.81348711  0.50141098     0.01200
C1678       C  0.27324455  0.77908115  0.50480814    -0.07200
C1679       C  0.28925532  0.76938214  0.52001070     0.63100
H1680       H  0.24100313  0.72711499  0.49584308     0.13800
H1681       H  0.27785043  0.84842722  0.48404827     0.13800
C1682       C  0.23353608  0.80678325  0.45831328     0.63400
F1683       F  0.27777336  0.73476121  0.52023498    -0.21800
F1684       F  0.28176076  0.77822472  0.53635421    -0.19100
F1685       F  0.32389859  0.78614195  0.51796524    -0.18800
F1686       F  0.24072684  0.79412257  0.44317366    -0.18900
F1687       F  0.24894837  0.84179330  0.45659172    -0.19200
F1688       F  0.19911874  0.79413509  0.45916923    -0.21900
C1689       C  0.01932583  0.76511928  0.48355665    -0.04700
C1690       C  0.49870485  0.77707892  0.49040403     0.01200
C1691       C  0.47968609  0.76280204  0.50604615    -0.07300
C1692       C  0.98236722  0.73755278  0.51470568    -0.04700
C1693       C  0.00411367  0.72628818  0.50861115     0.01200
C1694       C  0.02191847  0.73914511  0.49249406    -0.07200
C1695       C  0.04327971  0.72523751  0.48488202     0.63100
H1696       H  0.03366791  0.77632681  0.47149440     0.13800
H1697       H  0.96854700  0.72678398  0.52695965     0.13800
C1698       C  0.45634481  0.77474956  0.51309537     0.63400
F1699       F  0.05874182  0.74134631  0.46908707    -0.21800
F1700       F  0.02298427  0.69087609  0.48129027    -0.19100
F1701       F  0.06815007  0.72968439  0.49714266    -0.18800
F1702       F  0.43307679  0.77077173  0.49989864    -0.18900
F1703       F  0.47492780  0.80872779  0.51787875    -0.19200
F1704       F  0.43880175  0.75639704  0.52799441    -0.21900
C1705       C  0.33228456  0.90130335  0.35351290    -0.04700
C1706       C  0.34512584  0.93537789  0.34847947     0.01200
C1707       C  0.35169538  0.94473822  0.33021532    -0.07300
C1708       C  0.34661407  0.91963066  0.31760446    -0.04700
C1709       C  0.33385809  0.88561037  0.32261896     0.01200
C1710       C  0.32619720  0.87596906  0.34078702    -0.07200
C1711       C  0.31021183  0.83900426  0.34651560     0.63100
H1712       H  0.32607428  0.89459165  0.36747872     0.13800
H1713       H  0.35267601  0.92638910  0.30364486     0.13800
C1714       C  0.36285330  0.98070848  0.32397978     0.63400
F1715       F  0.30176349  0.83489662  0.36450669    -0.21800
F1716       F  0.33234590  0.82704530  0.34381974    -0.19100
F1717       F  0.28102530  0.81954464  0.33654288    -0.18800
F1718       F  0.39415276  0.00299547  0.33129738    -0.18900
F1719       F  0.33978752  0.99017389  0.32931298    -0.19200
F1720       F  0.36527777  0.98349834  0.30546560    -0.21900
C1721       C  0.37074364  0.03469517  0.42521661    -0.04700
C1722       C  0.34038895  0.53292077  0.42545307     0.01200
C1723       C  0.33894334  0.54431581  0.40785468    -0.07300
C1724       C  0.35777636  0.53993217  0.39431530    -0.04700
C1725       C  0.37392484  0.02952349  0.39300230     0.01200
C1726       C  0.38311679  0.02480505  0.41055532    -0.07200
C1727       C  0.40302773  0.00671488  0.41391120     0.63100
H1728       H  0.37447377  0.02810175  0.43871871     0.13800
H1729       H  0.35512938  0.54619493  0.38056019     0.13800
C1730       C  0.31471550  0.55686931  0.40267918     0.63400
F1731       F  0.40845156  0.00433189  0.43205800    -0.21800
F1732       F  0.43423824  0.02474856  0.40598779    -0.19100
F1733       F  0.38588270  0.97407851  0.40695316    -0.18800
F1734       F  0.32431644  0.58744122  0.41112060    -0.18900
F1735       F  0.28210942  0.53325109  0.40747007    -0.19200
F1736       F  0.31450700  0.56218807  0.38436689    -0.21900
C1737       C  0.11536791  0.65630022  0.31749685    -0.04700
C1738       C  0.12243033  0.67644177  0.33289301     0.01200
C1739       C  0.10474742  0.69424041  0.33597241    -0.07300
C1740       C  0.07915680  0.68986542  0.32378634    -0.04700
C1741       C  0.07194954  0.66958717  0.30842222     0.01200
C1742       C  0.09051254  0.65277798  0.30499338    -0.07200
C1743       C  0.08492577  0.63208210  0.28799173     0.63100
H1744       H  0.12976110  0.64356169  0.31529567     0.13800
H1745       H  0.06514442  0.70304191  0.32584551     0.13800
C1746       C  0.11462203  0.71980586  0.35118129     0.63400
F1747       F  0.10961918  0.62317137  0.28592773    -0.21800
F1748       F  0.08568578  0.65078660  0.27310950    -0.19100
F1749       F  0.05405324  0.60245602  0.28861569    -0.18800
F1750       F  0.14698805  0.74626632  0.34834116    -0.18900
F1751       F  0.11348686  0.70471855  0.36750281    -0.19200
F1752       F  0.09337797  0.73333813  0.35209114    -0.21900
C1753       C  0.17388086  0.65768028  0.39951084    -0.04700
C1754       C  0.18479025  0.68656934  0.38854672     0.01200
C1755       C  0.19764783  0.71906949  0.39686237    -0.07300
C1756       C  0.19759187  0.72080466  0.41560902    -0.04700
C1757       C  0.18499339  0.69183391  0.42637030     0.01200
C1758       C  0.17285715  0.65953964  0.41834414    -0.07200
C1759       C  0.15828957  0.62646167  0.42873929     0.63100
H1760       H  0.16542131  0.63315211  0.39340753     0.13800
H1761       H  0.20702427  0.74517404  0.42218739     0.13800
C1762       C  0.21127046  0.75220814  0.38643520     0.63400
F1763       F  0.12616105  0.60422735  0.42224922    -0.21800
F1764       F  0.15603899  0.63067627  0.44695151    -0.19100
F1765       F  0.17838815  0.61196680  0.42628824    -0.18800
F1766       F  0.18845501  0.74941495  0.37333867    -0.18900
F1767       F  0.24163125  0.76008498  0.37869945    -0.19200
F1768       F  0.21709831  0.77934338  0.39735797    -0.21900
C1769       C  0.06308501  0.92373243  0.33374874    -0.04700
C1770       C  0.07833303  0.91074149  0.34520594     0.01200
C1771       C  0.11311328  0.92163749  0.34344328    -0.07300
C1772       C  0.13134023  0.94453260  0.32964462    -0.04700
C1773       C  0.11600679  0.95711881  0.31788798     0.01200
C1774       C  0.08133794  0.94706250  0.32011242    -0.07200
C1775       C  0.06311636  0.95988895  0.30796946     0.63100
H1776       H  0.03650420  0.91505227  0.33550742     0.13800
H1777       H  0.15786459  0.95291665  0.32792010     0.13800
C1778       C  0.13104486  0.90979879  0.35638372     0.63400
F1779       F  0.02873369  0.94329721  0.31113999    -0.21800
F1780       F  0.06747874  0.95450238  0.29021519    -0.19100
F1781       F  0.07553813  0.99419024  0.31089441    -0.18800
F1782       F  0.11721847  0.87492826  0.35516406    -0.18900
F1783       F  0.12768546  0.91844249  0.37372542    -0.19200
F1784       F  0.16518175  0.92472151  0.35280605    -0.21900
C1785       C  0.49736539  0.86056470  0.40969072    -0.04700
C1786       C  0.02093712  0.85290295  0.40140862     0.01200
C1787       C  0.03856056  0.84134085  0.41268501    -0.07300
C1788       C  0.03077027  0.83636472  0.43097889    -0.04700
C1789       C  0.50743929  0.84435087  0.43924815     0.01200
C1790       C  0.49078419  0.85710256  0.42826665    -0.07200
C1791       C  0.46639206  0.86775595  0.43527524     0.63100
H1792       H  0.48344395  0.86866738  0.40115918     0.13800
H1793       H  0.04317452  0.82654550  0.43964081     0.13800
C1794       C  0.06580338  0.83431096  0.40584762     0.63400
F1795       F  0.47696623  0.90082897  0.43000091    -0.21800
F1796       F  0.46420557  0.86663596  0.45378003    -0.19100
F1797       F  0.43460761  0.84661646  0.42804332    -0.18800
F1798       F  0.08760020  0.86016992  0.39467354    -0.18900
F1799       F  0.05110134  0.80368884  0.39668017    -0.19200
F1800       F  0.08501434  0.83219968  0.41979720    -0.21900
C1801       C  0.42290877  0.83970757  0.65364785    -0.04700
C1802       C  0.41433499  0.81819420  0.63870702     0.01200
C1803       C  0.42962329  0.79786449  0.63633236    -0.07300
C1804       C  0.45230045  0.79888949  0.64957566    -0.04700
C1805       C  0.46063325  0.82021530  0.66456219     0.01200
C1806       C  0.44624703  0.84137391  0.66663320    -0.07200
C1807       C  0.45539093  0.86541920  0.68252575     0.63100
H1808       H  0.41097562  0.85507748  0.65506906     0.13800
H1809       H  0.46418418  0.78346052  0.64822740     0.13800
C1810       C  0.42339626  0.77656656  0.61951758     0.63400
F1811       F  0.48930297  0.88958012  0.68202993    -0.21800
F1812       F  0.44876271  0.84737790  0.69837005    -0.19100
F1813       F  0.43711453  0.88228578  0.68243013    -0.18800
F1814       F  0.44188317  0.75991168  0.61969293    -0.18900
F1815       F  0.43290817  0.79750352  0.60467813    -0.19200
F1816       F  0.38964912  0.75226947  0.61790394    -0.21900
C1817       C  0.34316776  0.86304286  0.58816924    -0.04700
C1818       C  0.35635587  0.84094465  0.58863107     0.01200
C1819       C  0.36304009  0.82938120  0.57241818    -0.07300
C1820       C  0.35462041  0.83902594  0.55620437    -0.04700
C1821       C  0.34123381  0.86097476  0.55555611     0.01200
C1822       C  0.33647363  0.87426802  0.57174968    -0.07200
C1823       C  0.32432244  0.89982195  0.57192107     0.63100
H1824       H  0.33788590  0.87124658  0.60076852     0.13800
H1825       H  0.35850031  0.82938623  0.54371230     0.13800
C1826       C  0.37939945  0.80727645  0.57216384     0.63400
F1827       F  0.33142067  0.91672786  0.58824674    -0.21800
F1828       F  0.28982724  0.88319157  0.56915469    -0.19100
F1829       F  0.34009326  0.92394526  0.55867007    -0.18800
F1830       F  0.35932967  0.77687969  0.58087388    -0.18900
F1831       F  0.41056385  0.82440666  0.58062438    -0.19200
F1832       F  0.38437102  0.79971444  0.55485149    -0.21900
C1833       C  0.18530221  0.52487993  0.57998891    -0.04700
C1834       C  0.16426452  0.49558521  0.58975280     0.01200
C1835       C  0.14167281  0.96515718  0.57583452    -0.07300
C1836       C  0.13628683  0.96818666  0.55741368    -0.04700
C1837       C  0.15517791  0.99898241  0.54816915     0.01200
C1838       C  0.18191740  0.52669690  0.56140195    -0.07200
C1839       C  0.20702670  0.55901383  0.55173686     0.63100
H1840       H  0.20482813  0.54664445  0.58720560     0.13800
H1841       H  0.11782851  0.94592323  0.55008276     0.13800
C1842       C  0.12253979  0.92995802  0.58402154     0.63400
F1843       F  0.23331049  0.58099613  0.56294502    -0.21800
F1844       F  0.19101173  0.57613502  0.54551376    -0.19100
F1845       F  0.22101908  0.55110190  0.53750648    -0.18800
F1846       F  0.08824818  0.91837426  0.58293535    -0.18900
F1847       F  0.13121220  0.92913341  0.60178342    -0.19200
F1848       F  0.12934669  0.90799200  0.57443312    -0.21900
C1849       C  0.16574167  0.54815747  0.65983067    -0.04700
C1850       C  0.18718124  0.55821067  0.64508358     0.01200
C1851       C  0.20935169  0.59327958  0.64176758    -0.07300
C1852       C  0.20900129  0.61740330  0.65346715    -0.04700
C1853       C  0.18717606  0.60732918  0.66807364     0.01200
C1854       C  0.16520668  0.57226611  0.67142423    -0.07200
C1855       C  0.14025415  0.56044559  0.68668506     0.63100
H1856       H  0.14881814  0.52121158  0.66190042     0.13800
H1857       H  0.22534227  0.64437393  0.65116070     0.13800
C1858       C  0.23244360  0.60514524  0.62564620     0.63400
F1859       F  0.12232925  0.52531943  0.68804824    -0.21800
F1860       F  0.11742501  0.57158230  0.68371267    -0.19100
F1861       F  0.15709199  0.57342297  0.70281719    -0.18800
F1862       F  0.21344809  0.59258642  0.61006283    -0.18900
F1863       F  0.25531628  0.59367148  0.62694576    -0.19200
F1864       F  0.25054343  0.64028643  0.62443545    -0.21900
C1865       C  0.42378747  0.58978865  0.64570392    -0.04700
C1866       C  0.45644536  0.59880834  0.65172839     0.01200
C1867       C  0.46079052  0.58037186  0.66586769    -0.07300
C1868       C  0.43184348  0.55318930  0.67343370    -0.04700
C1869       C  0.39916266  0.54441286  0.66749280     0.01200
C1870       C  0.39489348  0.56265549  0.65325406    -0.07200
C1871       C  0.36085287  0.55494426  0.64555591     0.63100
H1872       H  0.42081590  0.60422709  0.63490245     0.13800
H1873       H  0.43475503  0.53908613  0.68444179     0.13800
C1874       C  0.49481732  0.58825956  0.67367356     0.63400
F1875       F  0.35572187  0.58188911  0.64928632    -0.21800
F1876       F  0.33407538  0.52556675  0.65230887    -0.19100
F1877       F  0.36078652  0.55115653  0.62712261    -0.18800
F1878       F  0.49600080  0.59587073  0.69174372    -0.18900
F1879       F  0.52184889  0.61533899  0.66545582    -0.19200
F1880       F  0.49855624  0.55994552  0.67188917    -0.21900
C1881       C  0.04075872  0.66418167  0.59087476    -0.04700
C1882       C  0.01770622  0.66928732  0.60080345     0.01200
C1883       C  0.49806722  0.68142306  0.59211896    -0.07300
C1884       C  0.50204173  0.68702503  0.57353501    -0.04700
C1885       C  0.02311650  0.67969488  0.56322826     0.01200
C1886       C  0.04336184  0.66846230  0.57211086    -0.07200
C1887       C  0.06767792  0.66024283  0.56268287     0.63100
H1888       H  0.05659404  0.65618095  0.59774977     0.13800
H1889       H  0.48688855  0.69555497  0.56630126     0.13800
C1890       C  0.47196187  0.68724209  0.60158469     0.63400
F1891       F  0.05852876  0.62670142  0.56598419    -0.21800
F1892       F  0.09993407  0.68104704  0.56946461    -0.19100
F1893       F  0.06827121  0.66470390  0.54430502    -0.18800
F1894       F  0.48807122  0.71608948  0.61219981    -0.18900
F1895       F  0.45130915  0.65949845  0.61207683    -0.19200
F1896       F  0.45137430  0.69196180  0.58949761    -0.21900
C1897       C  0.47720286  0.74329169  0.99983644    -0.04700
C1898       C  0.98838317  0.77740276  0.99510863     0.01200
C1899       C  0.99933386  0.78877672  0.97746905    -0.07300
C1900       C  0.00019085  0.76583295  0.96515112    -0.04700
C1901       C  0.48966189  0.73300376  0.96974491     0.01200
C1902       C  0.47783135  0.72074728  0.98716532    -0.07200
C1903       C  0.46618737  0.68415310  0.99230370     0.63100
H1904       H  0.46782196  0.73452278  0.01322433     0.13800
H1905       H  0.00938005  0.77404762  0.95167721     0.13800
C1906       C  0.00997799  0.82489428  0.97178704     0.63400
F1907       F  0.45651624  0.67778204  0.01008640    -0.21800
F1908       F  0.49207376  0.67714603  0.98984637    -0.19100
F1909       F  0.43883203  0.66242660  0.98169737    -0.18800
F1910       F  0.03634544  0.84768924  0.98264596    -0.18900
F1911       F  0.98309180  0.83064427  0.97334675    -0.19200
F1912       F  0.02052766  0.83093658  0.95413159    -0.21900
C1913       C  0.21543629  0.74540773  0.99584964    -0.04700
C1914       C  0.23135258  0.74379652  0.01170560     0.01200
C1915       C  0.26700038  0.76317343  0.01348205    -0.07300
C1916       C  0.28580708  0.78250788  0.99877872    -0.04700
C1917       C  0.26993945  0.78352798  0.98279836     0.01200
C1918       C  0.23423898  0.76545349  0.98130991    -0.07200
C1919       C  0.21621284  0.76706993  0.96437791     0.63100
H1920       H  0.18815913  0.73038262  0.99488616     0.13800
H1921       H  0.31310086  0.79740381  0.99969475     0.13800
C1922       C  0.28498582  0.76430215  0.03099543     0.63400
F1923       F  0.18158431  0.74592169  0.96536725    -0.21800
F1924       F  0.22756785  0.75720020  0.94969703    -0.19100
F1925       F  0.22248629  0.79991380  0.96178780    -0.18800
F1926       F  0.28212410  0.73300494  0.03439347    -0.18900
F1927       F  0.27087217  0.77278014  0.04497747    -0.19200
F1928       F  0.31904012  0.78825492  0.03051030    -0.21900
C1929       C  0.21292927  0.53427797  0.99848489    -0.04700
C1930       C  0.20922449  0.51381699  0.98362664     0.01200
C1931       C  0.22604459  0.49469227  0.98327995    -0.07300
C1932       C  0.23710392  0.99234213  0.99343959    -0.04700
C1933       C  0.24834757  0.01463154  0.00814389     0.01200
C1934       C  0.23409965  0.03562330  0.01147404    -0.07200
C1935       C  0.24245534  0.05692133  0.02847763     0.63100
H1936       H  0.19899297  0.54784977  0.99856948     0.13800
H1937       H  0.24782255  0.97600524  0.99144762     0.13800
C1938       C  0.21966929  0.46921263  0.96838260     0.63400
F1939       F  0.26752408  0.58731309  0.03023932    -0.21800
F1940       F  0.23095749  0.53959505  0.04487646    -0.19100
F1941       F  0.22254991  0.07188328  0.03005995    -0.18800
F1942       F  0.22787971  0.48517588  0.95192307    -0.18900
F1943       F  0.16397270  0.94423018  0.96839312    -0.19200
F1944       F  0.21246699  0.94337804  0.96722819    -0.21900
C1945       C  0.34551976  0.86034910  0.23266866    -0.04700
C1946       C  0.31803090  0.83206578  0.22454321     0.01200
C1947       C  0.29166860  0.80778781  0.23538154    -0.07300
C1948       C  0.29563240  0.81097889  0.25419123    -0.04700
C1949       C  0.32341901  0.83909033  0.26220958     0.01200
C1950       C  0.34814941  0.86495063  0.25132704    -0.07200
C1951       C  0.37682586  0.89762995  0.25931374     0.63100
H1952       H  0.36494173  0.87918307  0.22414092     0.13800
H1953       H  0.27647498  0.79176905  0.26268891     0.13800
C1954       C  0.25866046  0.77908407  0.22803310     0.63400
F1955       F  0.39587833  0.92067658  0.24615513    -0.21800
F1956       F  0.39816937  0.89067170  0.26946416    -0.19100
F1957       F  0.36374343  0.91299276  0.27006434    -0.18800
F1958       F  0.25676519  0.74830214  0.23183345    -0.18900
F1959       F  0.25491842  0.78138151  0.20972856    -0.19200
F1960       F  0.23205005  0.77987217  0.23625839    -0.21900
C1961       C  0.47200375  0.68208947  0.23439523    -0.04700
C1962       C  0.49894596  0.69912959  0.22250970     0.01200
C1963       C  0.03122491  0.71997535  0.23011861    -0.07300
C1964       C  0.03740771  0.71584138  0.24821794    -0.04700
C1965       C  0.01089727  0.69459801  0.25967949     0.01200
C1966       C  0.47760422  0.68201388  0.25294818    -0.07200
C1967       C  0.44679539  0.66618090  0.26484145     0.63100
H1968       H  0.44651343  0.66649361  0.22937000     0.13800
H1969       H  0.06336084  0.72764826  0.25275304     0.13800
C1970       C  0.06015719  0.74672319  0.21924015     0.63400
F1971       F  0.42734069  0.68110352  0.26116118    -0.21800
F1972       F  0.45526450  0.67102838  0.28291356    -0.19100
F1973       F  0.42761459  0.63168239  0.26125435    -0.18800
F1974       F  0.04973731  0.75052754  0.20228645    -0.18900
F1975       F  0.08515887  0.73818486  0.21762468    -0.19200
F1976       F  0.07358304  0.77774733  0.22799759    -0.21900
C1977       C  0.17723623  0.52844412  0.23938871    -0.04700
C1978       C  0.19136684  0.51273758  0.22940312     0.01200
C1979       C  0.20682727  0.49638555  0.23830244    -0.07300
C1980       C  0.20533776  0.00872393  0.25387947    -0.04700
C1981       C  0.17213570  0.99732663  0.25941586     0.01200
C1982       C  0.17606172  0.52678469  0.25819360    -0.07200
C1983       C  0.10907699  0.97090367  0.25175243     0.63100
H1984       H  0.16520490  0.54040669  0.23214742     0.13800
H1985       H  0.22532595  0.01772837  0.26394733     0.13800
C1986       C  0.22141552  0.47822744  0.22778291     0.63400
F1987       F  0.13672303  0.54755402  0.25589796    -0.21800
F1988       F  0.10512117  0.99549397  0.26052972    -0.19100
F1989       F  0.09954413  0.94324857  0.26289509    -0.18800
F1990       F  0.24482817  0.50044461  0.21572608    -0.18900
F1991       F  0.19586029  0.45109131  0.21845957    -0.19200
F1992       F  0.25886534  0.99902888  0.24284997    -0.21900
C1993       C  0.00591193  0.82370991  0.06358753    -0.04700
C1994       C  0.99707559  0.84125003  0.05108379     0.01200
C1995       C  0.98578749  0.86313055  0.05764927    -0.07300
C1996       C  0.47327729  0.85864064  0.07557019    -0.04700
C1997       C  0.47738661  0.83702385  0.08760617     0.01200
C1998       C  0.99839530  0.82310473  0.08186902    -0.07200
C1999       C  0.01206729  0.80683349  0.09478426     0.63100
H2000       H  0.01643601  0.80830244  0.05910335     0.13800
H2001       H  0.45882270  0.87059792  0.07930662     0.13800
C2002       C  0.48393338  0.88977098  0.04636898     0.63400
F2003       F  0.04661977  0.82182240  0.09265269    -0.21800
F2004       F  0.49794934  0.77354851  0.09214353    -0.19100
F2005       F  0.00637083  0.81111323  0.11254128    -0.18800
F2006       F  0.45072104  0.88085508  0.04289401    -0.18900
F2007       F  0.00145368  0.89505084  0.03019352    -0.19200
F2008       F  0.49965531  0.92058901  0.05542224    -0.21900
C2009       C  0.34322090  0.80374070  0.15183975    -0.04700
C2010       C  0.36135455  0.82743379  0.16535563     0.01200
C2011       C  0.39697262  0.84706545  0.16461615    -0.07300
C2012       C  0.41357277  0.84074133  0.15067735    -0.04700
C2013       C  0.39555011  0.81717530  0.13698298     0.01200
C2014       C  0.35963348  0.79870464  0.13731261    -0.07200
C2015       C  0.33838158  0.77476735  0.12222404     0.63100
H2016       H  0.31591974  0.78959563  0.15262938     0.13800
H2017       H  0.44089162  0.85458286  0.15020502     0.13800
C2018       C  0.41721256  0.87531111  0.17811278     0.63400
F2019       F  0.30482761  0.76628837  0.12335466    -0.21800
F2020       F  0.33957489  0.74495356  0.12307247    -0.19100
F2021       F  0.35013347  0.79008728  0.10575970    -0.18800
F2022       F  0.41074371  0.86263586  0.19539101    -0.18900
F2023       F  0.40835877  0.90026812  0.17652316    -0.19200
F2024       F  0.45162808  0.89030693  0.17533503    -0.21900
C2025       C  0.15242651  0.56603104  0.17646019    -0.04700
C2026       C  0.16805282  0.54749840  0.17135064     0.01200
C2027       C  0.17844311  0.54871495  0.15346166    -0.07300
C2028       C  0.17297216  0.56897065  0.14109837    -0.04700
C2029       C  0.15797595  0.58809492  0.14626245     0.01200
C2030       C  0.14767128  0.58695084  0.16419809    -0.07200
C2031       C  0.13281018  0.60852065  0.17043180     0.63100
H2032       H  0.14442620  0.56429476  0.19024806     0.13800
H2033       H  0.18158604  0.57116091  0.12740842     0.13800
C2034       C  0.19643855  0.52982458  0.14775090     0.63400
F2035       F  0.12526206  0.60413851  0.18853561    -0.21800
F2036       F  0.10335330  0.59961913  0.16096912    -0.19100
F2037       F  0.15560005  0.64257737  0.16759537    -0.18800
F2038       F  0.17601219  0.49532600  0.15064099    -0.18900
F2039       F  0.22599202  0.54150948  0.15766993    -0.19200
F2040       F  0.20461223  0.53455915  0.12972745    -0.21900
C2041       C  0.12921118  0.64568159  0.06321853    -0.04700
C2042       C  0.15054560  0.68117936  0.06188211     0.01200
C2043       C  0.15833138  0.70076692  0.07794876    -0.07300
C2044       C  0.14682898  0.68336154  0.09435422    -0.04700
C2045       C  0.13608995  0.64847587  0.09566551     0.01200
C2046       C  0.12597433  0.62875164  0.07961817    -0.07200
C2047       C  0.11581727  0.59127230  0.07904718     0.63100
H2048       H  0.12171574  0.63108968  0.05083808     0.13800
H2049       H  0.15280986  0.69774964  0.10676881     0.13800
C2050       C  0.18141569  0.73912644  0.07855260     0.63400
F2051       F  0.11533929  0.58014105  0.06168615    -0.21800
F2052       F  0.08374806  0.57190127  0.08576767    -0.19100
F2053       F  0.13843336  0.58552244  0.08881249    -0.18800
F2054       F  0.16525076  0.75482993  0.07075731    -0.18900
F2055       F  0.21125545  0.74829895  0.06980967    -0.19200
F2056       F  0.18988326  0.75129718  0.09598699    -0.21900
C2057       C  0.43646985  0.63609436  0.15380300    -0.04700
C2058       C  0.44396992  0.62499551  0.16982973     0.01200
C2059       C  0.42651984  0.59000252  0.17433824    -0.07300
C2060       C  0.40110589  0.56702606  0.16260556    -0.04700
C2061       C  0.39324129  0.57819103  0.14669904     0.01200
C2062       C  0.41129120  0.61308730  0.14198381    -0.07200
C2063       C  0.40426500  0.62585722  0.12447857     0.63100
H2064       H  0.45042333  0.66299818  0.15070308     0.13800
H2065       H  0.38695969  0.54016638  0.16578589     0.13800
C2066       C  0.43455103  0.57713372  0.19151028     0.63400
F2067       F  0.42744915  0.65984113  0.12160207    -0.21800
F2068       F  0.37247743  0.62243702  0.12479972    -0.19100
F2069       F  0.40599609  0.60730027  0.11022228    -0.18800
F2070       F  0.43248433  0.59463194  0.20618024    -0.18900
F2071       F  0.46683909  0.58189749  0.19068366    -0.19200
F2072       F  0.41234610  0.54280344  0.19411298    -0.21900
C2073       C  0.29144953  0.98076823  0.06864843    -0.04700
C2074       C  0.31473371  0.99268084  0.05459990     0.01200
C2075       C  0.34477473  0.50449339  0.06708230    -0.07300
C2076       C  0.35276964  0.50721673  0.08547505    -0.04700
C2077       C  0.33754689  0.00464705  0.09049477     0.01200
C2078       C  0.30241372  0.98465893  0.08662658    -0.07200
C2079       C  0.27582101  0.96887232  0.10102717     0.63100
H2080       H  0.26488520  0.97109475  0.06588430     0.13800
H2081       H  0.37909085  0.52137458  0.08945515     0.13800
C2082       C  0.37320220  0.51554538  0.05380176     0.63400
F2083       F  0.25504557  0.93465332  0.09725390    -0.21800
F2084       F  0.25632238  0.98440364  0.10122835    -0.19100
F2085       F  0.28998411  0.97151869  0.11790090    -0.18800
F2086       F  0.39503894  0.55021799  0.05528529    -0.18900
F2087       F  0.36128913  0.50773933  0.03628678    -0.19200
F2088       F  0.39092902  0.49882008  0.05758773    -0.21900
C2089       C  0.30074928  0.97831731  0.74424036    -0.04700
C2090       C  0.32987715  0.99136504  0.75518064     0.01200
C2091       C  0.36161650  0.00150894  0.74718716    -0.07300
C2092       C  0.35848662  0.49818676  0.72893944    -0.04700
C2093       C  0.33006596  0.49124420  0.71848370     0.01200
C2094       C  0.29945727  0.48347775  0.72694554    -0.07200
C2095       C  0.26655601  0.47305542  0.71701624     0.63100
H2096       H  0.27657958  0.97036664  0.75035166     0.13800
H2097       H  0.38153719  0.50382087  0.72212571     0.13800
C2098       C  0.39394572  0.01319566  0.75815201     0.63400
F2099       F  0.24204158  0.44160360  0.72317741    -0.21800
F2100       F  0.26893320  0.47060257  0.69865633    -0.19100
F2101       F  0.25640501  0.49658007  0.72044145    -0.18800
F2102       F  0.38882425  0.98958661  0.77133063    -0.18900
F2103       F  0.40393707  0.04442690  0.76597793    -0.19200
F2104       F  0.42033167  0.01681078  0.74763055    -0.21900
C2105       C  0.15924026  0.66126889  0.74993874    -0.04700
C2106       C  0.18990290  0.67802462  0.75939543     0.01200
C2107       C  0.22055822  0.69326270  0.74985153    -0.07300
C2108       C  0.21924898  0.69026950  0.73099623    -0.04700
C2109       C  0.18858103  0.67151318  0.72150767     0.01200
C2110       C  0.15775337  0.65679311  0.73124224    -0.07200
C2111       C  0.12321982  0.63453206  0.72250623     0.63100
H2112       H  0.13617884  0.64978185  0.75761074     0.13800
H2113       H  0.24264887  0.70234207  0.72372027     0.13800
C2114       C  0.25515060  0.71237060  0.75873080     0.63400
F2115       F  0.09819184  0.61782657  0.73509661    -0.21800
F2116       F  0.12382490  0.60993174  0.71192229    -0.19100
F2117       F  0.11412607  0.65415011  0.71222891    -0.18800
F2118       F  0.25381163  0.71570807  0.77709614    -0.18900
F2119       F  0.27283438  0.74466838  0.75147749    -0.19200
F2120       F  0.27258566  0.69530929  0.75541193    -0.21900
C2121       C  0.02161218  0.79203426  0.74879880    -0.04700
C2122       C  0.00497791  0.80521985  0.75899643     0.01200
C2123       C  0.48876895  0.81914266  0.75012335    -0.07300
C2124       C  0.48819929  0.81873807  0.73131977    -0.04700
C2125       C  0.50493879  0.80553768  0.72146462     0.01200
C2126       C  0.02298365  0.79456221  0.72991084    -0.07200
C2127       C  0.04467877  0.78415167  0.71944355     0.63100
H2128       H  0.03449557  0.78073391  0.75573710     0.13800
H2129       H  0.47586346  0.83030645  0.72404553     0.13800
C2130       C  0.47444295  0.83872420  0.75975370     0.63400
F2131       F  0.05991937  0.77101728  0.73052971    -0.21800
F2132       F  0.06983760  0.81219135  0.71075999    -0.19100
F2133       F  0.52334059  0.75515137  0.70775348    -0.18800
F2134       F  0.99684459  0.86170471  0.77255633    -0.18900
F2135       F  0.44433832  0.81633585  0.76781007    -0.19200
F2136       F  0.46800922  0.85863358  0.74800938    -0.21900
C2137       C  0.34449995  0.93196111  0.81171721    -0.04700
C2138       C  0.32410399  0.94633889  0.81504590     0.01200
C2139       C  0.30405442  0.93717364  0.83053966    -0.07300
C2140       C  0.30469890  0.91308909  0.84220700    -0.04700
C2141       C  0.32441006  0.89790224  0.83865411     0.01200
C2142       C  0.34444004  0.90711381  0.82302539    -0.07200
C2143       C  0.36535223  0.89125023  0.81727517     0.63100
H2144       H  0.35986440  0.93948900  0.79975789     0.13800
H2145       H  0.28942476  0.90554860  0.85417755     0.15000
C2146       C  0.28171255  0.95228789  0.83445092     0.63400
F2147       F  0.35895140  0.88208335  0.79933189    -0.21800
F2148       F  0.35841728  0.86237594  0.82684185    -0.19100
F2149       F  0.39923969  0.91494030  0.81940984    -0.18800
F2150       F  0.25906864  0.94515945  0.82039395    -0.18900
F2151       F  0.30136812  0.98716811  0.83646323    -0.19200
F2152       F  0.26348770  0.93922240  0.85002742    -0.21900
C2153       C  0.36263696  0.86698698  0.90187472    -0.04700
C2154       C  0.34341671  0.83906616  0.89046992     0.01200
C2155       C  0.32892698  0.80594468  0.89795456    -0.07300
C2156       C  0.32553637  0.80239386  0.91664263    -0.04700
C2157       C  0.34047454  0.83083286  0.92810475     0.01200
C2158       C  0.36318774  0.86296154  0.92055094    -0.07200
C2159       C  0.38734641  0.89393084  0.93155525     0.63100
H2160       H  0.37535457  0.89256791  0.89665184     0.13800
H2161       H  0.30900463  0.77730117  0.92192374     0.13800
C2162       C  0.31543338  0.77370928  0.88683319     0.63400
F2163       F  0.41974538  0.90630791  0.92522914    -0.21800
F2164       F  0.38760954  0.88655527  0.94957058    -0.19100
F2165       F  0.37870848  0.91904126  0.92973789    -0.18800
F2166       F  0.32317981  0.78043644  0.86884892    -0.18900
F2167       F  0.28076598  0.75436802  0.88860827    -0.19200
F2168       F  0.32979978  0.75493105  0.89303149    -0.21900
C2169       C  0.48128849  0.65129231  0.88752142    -0.04700
C2170       C  0.00253390  0.63639653  0.88998365     0.01200
C2171       C  0.00241589  0.62128460  0.90674801    -0.07300
C2172       C  0.98568307  0.62621889  0.92124379    -0.04700
C2173       C  0.47550644  0.65195569  0.91987264     0.01200
C2174       C  0.47027321  0.66177326  0.90256164    -0.07200
C2175       C  0.45627172  0.68563112  0.89984036     0.63100
H2176       H  0.47974113  0.66057119  0.87431983     0.13800
H2177       H  0.98729158  0.61696630  0.93444293     0.13800
C2178       C  0.02195589  0.60270726  0.91005306     0.63400
F2179       F  0.45596681  0.69375647  0.88192608    -0.21800
F2180       F  0.47570228  0.71572622  0.90914298    -0.19100
F2181       F  0.42338036  0.67009228  0.90570949    -0.18800
F2182       F  0.05533797  0.62285695  0.90524681    -0.18900
F2183       F  0.00741619  0.57286335  0.90026362    -0.19200
F2184       F  0.02154476  0.59408566  0.92794524    -0.21900
C2185       C  0.08172493  0.64425282  0.83046164    -0.04700
C2186       C  0.09640217  0.66126269  0.84664904     0.01200
C2187       C  0.13197248  0.67751879  0.84906330    -0.07300
C2188       C  0.15189921  0.67856923  0.83455010    -0.04700
C2189       C  0.13728679  0.66280651  0.81814761     0.01200
C2190       C  0.10164488  0.64397784  0.81624240    -0.07200
C2191       C  0.08481355  0.62321417  0.79941301     0.63100
H2192       H  0.05450333  0.63152975  0.82897733     0.13800
H2193       H  0.17915746  0.69154321  0.83594846     0.13800
C2194       C  0.14888688  0.69273429  0.86701743     0.63400
F2195       F  0.04995313  0.60576809  0.80064689    -0.21800
F2196       F  0.09510131  0.59957340  0.79681131    -0.19100
F2197       F  0.09354272  0.64424855  0.78461737    -0.18800
F2198       F  0.18155601  0.69827222  0.86779773    -0.18900
F2199       F  0.13104303  0.67079307  0.88081193    -0.19200
F2200       F  0.15029859  0.72356074  0.86968804    -0.21900
C2201       C  0.08529574  0.88216392  0.84399566    -0.04700
C2202       C  0.09963980  0.91536588  0.83724456     0.01200
C2203       C  0.09144093  0.92099900  0.81972694    -0.07300
C2204       C  0.06866456  0.89274092  0.80939516    -0.04700
C2205       C  0.05425975  0.85948475  0.81613278     0.01200
C2206       C  0.06248283  0.85386539  0.83369008    -0.07200
C2207       C  0.04807076  0.81824130  0.84126214     0.63100
H2208       H  0.09254514  0.87860843  0.85737607     0.13800
H2209       H  0.06182332  0.89634618  0.79591661     0.13800
C2210       C  0.10692743  0.95661498  0.81205264     0.63400
F2211       F  0.06198955  0.81841813  0.85791564    -0.21800
F2212       F  0.05470196  0.79842347  0.82976451    -0.19100
F2213       F  0.01357096  0.80366829  0.84322799    -0.18800
F2214       F  0.14171856  0.97146431  0.81193485    -0.18900
F2215       F  0.09816367  0.97613608  0.82248336    -0.19200
F2216       F  0.09589308  0.95644487  0.79462942    -0.21900
C2217       C  0.16674847  0.51462119  0.89146688    -0.04700
C2218       C  0.16102619  0.48208774  0.88698597     0.01200
C2219       C  0.15740404  0.45900318  0.90080284    -0.07300
C2220       C  0.16019655  0.46966088  0.91868881    -0.04700
C2221       C  0.16435557  0.50157007  0.92325282     0.01200
C2222       C  0.16658956  0.52413985  0.90945169    -0.07200
C2223       C  0.16726201  0.55744214  0.91277172     0.63100
H2224       H  0.17007744  0.53230734  0.88081512     0.13800
H2225       H  0.15848830  0.45271000  0.92943099     0.13800
C2226       C  0.13329457  0.92588297  0.90141201     0.63400
F2227       F  0.14303432  0.55880868  0.90201386    -0.21800
F2228       F  0.19865960  0.58422275  0.90838630    -0.19100
F2229       F  0.16041318  0.56125957  0.93035162    -0.18800
F2230       F  0.17740384  0.42435724  0.88801058    -0.18900
F2231       F  0.10641211  0.91029526  0.88946605    -0.19200
F2232       F  0.12424352  0.90691005  0.91704900    -0.21900
N2233       N  0.94375443  0.41988244  0.85868902    -0.26200
N2234       N  0.93427033  0.44320407  0.85781971    -0.34100
C2235       C  0.90025572  0.42748088  0.85748784     0.02100
C2236       C  0.88785932  0.39279738  0.85842273     0.08200
C2237       C  0.91592778  0.38876048  0.85920264    -0.04900
H2238       H  0.88577067  0.44043842  0.85717026     0.08800
H2239       H  0.91612909  0.36503544  0.86009445     0.10000
Cu2240     Cu  0.96105995  0.00415576  0.86190735     0.44200
Cu2241     Cu  0.99398017  0.43024356  0.85939747     0.42000
Cu2242     Cu  0.54686601  0.02608130  0.86475334     0.43900
N2243       N  0.99992904  0.05507469  0.86309690    -0.33600
N2244       N  0.53097660  0.06165423  0.86455926    -0.27800
C2245       C  0.55055115  0.09570135  0.86549776    -0.03900
C2246       C  0.52966311  0.10957789  0.86607312     0.08300
C2247       C  0.99828205  0.08401983  0.86381660     0.02100
H2248       H  0.57784171  0.10917386  0.86634631     0.09700
H2249       H  0.97516013  0.08511617  0.86377982     0.08800
N2250       N  0.56022863  0.98861518  0.86412660    -0.35000
N2251       N  0.54588188  0.44981632  0.86146676    -0.27200
C2252       C  0.56398724  0.43369094  0.86024157    -0.02500
C2253       C  0.59796373  0.45793645  0.86212837     0.06200
C2254       C  0.59182719  0.99380051  0.86453979     0.04200
H2255       H  0.55329708  0.40672781  0.85778969     0.09400
H2256       H  0.61429252  0.01857288  0.86515619     0.08200
N2257       N  0.62713448  0.45429925  0.85913392    -0.02400
C2258       C  0.64727360  0.97332570  0.87188679     0.00200
C2259       C  0.68104398  0.46607128  0.85990008    -0.22700
C2260       C  0.66527368  0.44495047  0.84542960    -0.22900
C2261       C  0.63221546  0.43808310  0.84532966     0.00100
H2262       H  0.70628079  0.47400998  0.86485819     0.13900
H2263       H  0.67602223  0.43378019  0.83675942     0.13900
N2264       N  0.54020657  0.14515500  0.86796974    -0.02400
C2265       C  0.52644803  0.15960428  0.87843350     0.00200
C2266       C  0.54291109  0.19444861  0.87549831    -0.22700
C2267       C  0.56751625  0.20176929  0.86318554    -0.22900
C2268       C  0.56615294  0.17145749  0.85916860     0.00100
H2269       H  0.53786951  0.21285383  0.88189799     0.13900
H2270       H  0.58422506  0.22655470  0.85758819     0.13900
N2271       N  0.85291590  0.36625976  0.85893985    -0.02400
C2272       C  0.83864793  0.33844235  0.86982689     0.00200
C2273       C  0.80452752  0.31875511  0.86548763    -0.22700
C2274       C  0.79769126  0.33464636  0.85179930    -0.22900
C2275       C  0.82755982  0.36380552  0.84817280     0.00100
H2276       H  0.78555319  0.29705867  0.87270908     0.13900
H2277       H  0.77306557  0.32712561  0.84604415     0.13900
N2278       N  0.72688576  0.38920365  0.77657396    -0.26200
N2279       N  0.74317441  0.37186434  0.77757995    -0.34100
C2280       C  0.77652023  0.39400567  0.77974502     0.02100
C2281       C  0.78131850  0.42668235  0.77963186     0.08200
C2282       C  0.74939242  0.42265009  0.77782407    -0.04900
H2283       H  0.79547403  0.38671607  0.78202025     0.08800
H2284       H  0.74274732  0.44239650  0.77881554     0.10000
Cu2285     Cu  0.71909856  0.31862388  0.77787323     0.44200
Cu2286     Cu  0.67446693  0.36772913  0.77634777     0.42000
Cu2287     Cu  0.62852579  0.27669033  0.77898277     0.43900
N2288       N  0.68821080  0.26583083  0.78030308    -0.33600
N2289       N  0.65493820  0.25083117  0.78135247    -0.27800
C2290       C  0.64219860  0.21753881  0.78493209    -0.03900
C2291       C  0.66873103  0.21116816  0.78576686     0.08300
C2292       C  0.69756156  0.24221727  0.78285166     0.02100
H2293       H  0.61579514  0.19971780  0.78715216     0.09700
H2294       H  0.72342908  0.24769926  0.78367893     0.08800
N2295       N  0.60549265  0.30597702  0.77812683    -0.35000
N2296       N  0.62191978  0.33961889  0.77772325    -0.27200
C2297       C  0.59945790  0.35055079  0.77946728    -0.02500
C2298       C  0.56750778  0.32216604  0.78050737     0.06200
C2299       C  0.57236135  0.29451434  0.77990048     0.04200
H2300       H  0.60605598  0.37694062  0.78058598     0.09400
H2301       H  0.55354369  0.26813413  0.78197634     0.08200
N2302       N  0.53681284  0.32058555  0.78617560    -0.02400
C2303       C  0.50623584  0.30171159  0.77817782     0.00200
C2304       C  0.48098540  0.29606505  0.79011719    -0.22700
C2305       C  0.49678861  0.31306423  0.80574673    -0.22900
C2306       C  0.53106256  0.32776462  0.80291997     0.00100
H2307       H  0.45416021  0.28364055  0.78724721     0.13900
H2308       H  0.48469816  0.31653207  0.81731811     0.13900
N2309       N  0.66772022  0.18038897  0.79160287    -0.02400
C2310       C  0.68259640  0.16472721  0.78331734     0.00200
C2311       C  0.67888588  0.13771089  0.79373305    -0.22700
C2312       C  0.66057932  0.13636796  0.80857226    -0.22900
C2313       C  0.65353951  0.16248642  0.80674917     0.00100
H2314       H  0.68506851  0.11847991  0.78985294     0.13900
H2315       H  0.65131877  0.11699941  0.81886665     0.13900
N2316       N  0.81071908  0.45751761  0.78559647    -0.02400
C2317       C  0.82479726  0.48776503  0.77701147     0.00200
C2318       C  0.84532831  0.51370497  0.78876444    -0.22700
C2319       C  0.84472417  0.49858264  0.80492316    -0.22900
C2320       C  0.82326748  0.46407979  0.80255437     0.00100
H2321       H  0.86149430  0.54026930  0.78549918     0.13900
H2322       H  0.86047052  0.51101784  0.81657548     0.13900
N2323       N  0.55581894  0.05556676  0.11652480    -0.26200
N2324       N  0.56183231  0.02980710  0.11675424    -0.34100
C2325       C  0.59539684  0.04199871  0.11653860     0.02100
C2326       C  0.61134525  0.07707468  0.11589767     0.08200
C2327       C  0.58568109  0.08504090  0.11600172    -0.04900
H2328       H  0.60717172  0.02639433  0.11613378     0.08800
H2329       H  0.58843874  0.11014780  0.11534495     0.10000
Cu2330     Cu  0.52136927  0.48162327  0.12264469     0.44200
Cu2331     Cu  0.50662543  0.04850482  0.11596589     0.42000
Cu2332     Cu  0.93167615  0.45345650  0.12365472     0.43900
N2333       N  0.48349832  0.43069750  0.12201492    -0.33600
N2334       N  0.95103059  0.42017666  0.12317062    -0.27800
C2335       C  0.93353599  0.38585403  0.12324533    -0.03900
C2336       C  0.95638047  0.37425553  0.12223967     0.08300
C2337       C  0.48745031  0.40317595  0.12126171     0.02100
H2338       H  0.90632011  0.37063325  0.12384864     0.09700
H2339       H  0.51152024  0.40402888  0.12073399     0.08800
N2340       N  0.91919143  0.49210305  0.12328983    -0.35000
N2341       N  0.95338210  0.03202651  0.11444895    -0.27200
C2342       C  0.93911169  0.05190105  0.11445500    -0.02500
C2343       C  0.90430407  0.03103741  0.11345567     0.06200
C2344       C  0.88808647  0.48866518  0.12316399     0.04200
H2345       H  0.95303323  0.07938274  0.11532172     0.09400
H2346       H  0.86467144  0.46461194  0.12322341     0.08200
N2347       N  0.87891418  0.04105176  0.11487501    -0.02400
C2348       C  0.84799294  0.02678357  0.10662597     0.00200
C2349       C  0.83068987  0.04279948  0.11253849    -0.22700
C2350       C  0.85090604  0.06684014  0.12488871    -0.22900
C2351       C  0.88050201  0.06582430  0.12578004     0.00100
H2352       H  0.80658772  0.03886381  0.10772367     0.13900
H2353       H  0.84467245  0.08337259  0.13235622     0.13900
N2354       N  0.64719895  0.09998388  0.11445302    -0.02400
C2355       C  0.66361693  0.12766027  0.10354758     0.00200
C2356       C  0.69823561  0.14166347  0.10562137    -0.22700
C2357       C  0.70353319  0.12241863  0.11797026    -0.22900
C2358       C  0.67211662  0.09711966  0.12321833     0.00100
H2359       H  0.71769324  0.16341669  0.09857550     0.13900
H2360       H  0.72776144  0.12624844  0.12257487     0.13900
N2361       N  0.94916719  0.33942236  0.12271881    -0.02400
C2362       C  0.96487291  0.32529631  0.11351372     0.00200
C2363       C  0.95178025  0.29166812  0.11877122    -0.22700
C2364       C  0.92816375  0.28512971  0.13161438    -0.22900
C2365       C  0.92631653  0.31436808  0.13345028     0.00100
H2366       H  0.95714745  0.27296522  0.11311814     0.13900
H2367       H  0.91301302  0.26115209  0.13840406     0.13900
N2368       N  0.78332851  0.09600213  0.19465035    -0.26200
N2369       N  0.76552901  0.10948967  0.20084156    -0.34100
C2370       C  0.73250690  0.08534502  0.20103327     0.02100
C2371       C  0.72990770  0.05552586  0.19464469     0.08200
C2372       C  0.76228492  0.06316393  0.19049253    -0.04900
H2373       H  0.71218037  0.08931704  0.20531279     0.08800
H2374       H  0.77004389  0.04605229  0.18505632     0.10000
Cu2375     Cu  0.78812384  0.16087070  0.20743722     0.44200
Cu2376     Cu  0.83578356  0.12205217  0.19292701     0.42000
Cu2377     Cu  0.88093134  0.21149325  0.20148716     0.43900
N2378       N  0.81637761  0.21379456  0.20783562    -0.33600
N2379       N  0.84918505  0.23195533  0.20471696    -0.27800
C2380       C  0.85770236  0.26481432  0.20260587    -0.03900
C2381       C  0.82910042  0.26755906  0.20506297     0.08300
C2382       C  0.80342041  0.23469981  0.20814651     0.02100
H2383       H  0.88245070  0.28453449  0.19863610     0.09700
H2384       H  0.77674243  0.22603083  0.20867604     0.08800
N2385       N  0.90541080  0.18357000  0.19740807    -0.35000
N2386       N  0.88832647  0.15053044  0.19393098    -0.27200
C2387       C  0.91016742  0.13914145  0.19161054    -0.02500
C2388       C  0.94262097  0.16630503  0.19382452     0.06200
C2389       C  0.93881543  0.19418193  0.19747909     0.04200
H2390       H  0.90279155  0.11297184  0.18873415     0.09400
H2391       H  0.95869623  0.22012687  0.19979599     0.08200
N2392       N  0.70007273  0.02291283  0.19227833    -0.02400
C2393       C  0.69128323  0.99573751  0.20316259     0.00200
C2394       C  0.67044047  0.96612697  0.19365328    -0.22700
C2395       C  0.66573288  0.97552633  0.17676786    -0.22900
C2396       C  0.68457688  0.01057794  0.17616587     0.00100
H2397       H  0.65626841  0.94078328  0.19920360     0.13900
H2398       H  0.64772096  0.95877976  0.16680034     0.13900
N2399       N  0.97374570  0.16562473  0.19190202    -0.02400
C2400       C  0.00237346  0.18097493  0.20229667     0.00200
C2401       C  0.02585011  0.17298157  0.19554594    -0.22700
C2402       C  0.01182743  0.15301127  0.18064829    -0.22900
C2403       C  0.97979321  0.14829692  0.17896601     0.00100
H2404       H  0.55098346  0.18084642  0.20128279     0.13900
H2405       H  0.02325843  0.14198419  0.17237889     0.13900
N2406       N  0.82408308  0.29560006  0.20026723    -0.02400
C2407       C  0.80483220  0.30543780  0.20939620     0.00200
C2408       C  0.79838618  0.32661119  0.19862132    -0.22700
C2409       C  0.81482432  0.33046721  0.18267200    -0.22900
C2410       C  0.83091035  0.31168095  0.18422338     0.00100
H2411       H  0.78690816  0.34134199  0.20280542     0.13900
H2412       H  0.81717372  0.34737983  0.17180074     0.13900
N2413       N  0.71797059  0.40323694  0.03572012    -0.26200
N2414       N  0.69551083  0.41360260  0.03540086    -0.34100
C2415       C  0.71202117  0.44794059  0.03544694     0.02100
C2416       C  0.74638383  0.45940817  0.03606221     0.08200
C2417       C  0.74932643  0.43052415  0.03624078    -0.04900
H2418       H  0.69994163  0.46328176  0.03534393     0.08800
H2419       H  0.77242581  0.42938041  0.03656228     0.10000
Cu2420     Cu  0.64333934  0.37975078  0.03551747     0.44200
Cu2421     Cu  0.70480399  0.35226704  0.03512897     0.42000
Cu2422     Cu  0.61597859  0.28842479  0.03406852     0.43900
N2423       N  0.59274744  0.34077086  0.03530740    -0.33600
N2424       N  0.58284441  0.30791419  0.03400243    -0.27800
C2425       C  0.54880020  0.29001143  0.03290832    -0.03900
C2426       C  0.53686231  0.31266447  0.03395179     0.08300
C2427       C  0.56525722  0.34454728  0.03548301     0.02100
H2428       H  0.53397088  0.26264506  0.03150675     0.09700
H2429       H  0.56594006  0.36873549  0.03598692     0.08800
N2430       N  0.65487245  0.27653712  0.03485758    -0.35000
N2431       N  0.68722117  0.30023589  0.03480694    -0.27200
C2432       C  0.70625875  0.28521938  0.03464808    -0.02500
C2433       C  0.68493004  0.25040261  0.03496407     0.06200
C2434       C  0.65248463  0.24557585  0.03498447     0.04200
H2435       H  0.73355785  0.29869258  0.03434708     0.09400
H2436       H  0.62905224  0.22154426  0.03466386     0.08200
N2437       N  0.77358296  0.49425254  0.03642924    -0.02400
C2438       C  0.80283345  0.50758012  0.04617206     0.00200
C2439       C  0.82598305  0.03892282  0.03153385    -0.22700
C2440       C  0.80728612  0.04563689  0.01942864    -0.22900
C2441       C  0.77549371  0.52027061  0.02645552     0.00100
H2442       H  0.85103891  0.05720351  0.03630044     0.13900
H2443       H  0.81548196  0.06926629  0.01229457     0.13900
N2444       N  0.69472337  0.22480627  0.03353428    -0.02400
C2445       C  0.68240637  0.19467951  0.04247335     0.00200
C2446       C  0.69660103  0.17626019  0.03561978    -0.22700
C2447       C  0.71828764  0.19534654  0.02241469    -0.22900
C2448       C  0.71751617  0.22528870  0.02173714     0.00100
H2449       H  0.69235880  0.15173543  0.04016432     0.13900
H2450       H  0.73328921  0.18826491  0.01426139     0.13900
N2451       N  0.50234423  0.30524196  0.03206030    -0.02400
C2452       C  0.48670046  0.31898860  0.04157894     0.00200
C2453       C  0.95560943  0.30661307  0.03577893    -0.22700
C2454       C  0.95151798  0.28593919  0.02145228    -0.22900
C2455       C  0.47934136  0.28454211  0.01954793     0.00100
H2456       H  0.93598427  0.31025608  0.04150424     0.13900
H2457       H  0.92875334  0.27146990  0.01347485     0.13900
N2458       N  0.89222103  0.18885095  0.95026352    -0.26200
N2459       N  0.87858115  0.15542416  0.94845453    -0.34100
C2460       C  0.90376917  0.14783453  0.94821153     0.02100
C2461       C  0.93428252  0.17803146  0.94998427     0.08200
C2462       C  0.92595148  0.20327755  0.95139713    -0.04900
H2463       H  0.90012568  0.12239831  0.94732928     0.08800
H2464       H  0.94306911  0.23026190  0.95306573     0.10000
Cu2465     Cu  0.82590253  0.12212752  0.94746720     0.44200
Cu2466     Cu  0.86636877  0.21567855  0.95157064     0.42000
Cu2467     Cu  0.77862040  0.16804155  0.95269611     0.43900
N2468       N  0.77277666  0.09839961  0.94818726    -0.33600
N2469       N  0.75664187  0.11573529  0.94988169    -0.27800
C2470       C  0.72333590  0.09397407  0.95083450    -0.03900
C2471       C  0.71772070  0.06126219  0.94929408     0.08300
C2472       C  0.74966451  0.06477022  0.94814819     0.02100
H2473       H  0.70482636  0.10145035  0.95378419     0.09700
H2474       H  0.75583373  0.04464502  0.94806154     0.08800
N2475       N  0.80387725  0.22065793  0.95460272    -0.35000
N2476       N  0.83710892  0.23883137  0.95355665    -0.27200
C2477       C  0.84666776  0.27216568  0.95374087    -0.02500
C2478       C  0.81787648  0.27478080  0.95524645     0.06200
C2479       C  0.79115344  0.24174932  0.95576950     0.04200
H2480       H  0.87240248  0.29278454  0.95253905     0.09400
H2481       H  0.76453259  0.23365063  0.95611863     0.08200
N2482       N  0.96774315  0.18263325  0.95203790    -0.02400
C2483       C  0.98405937  0.17086611  0.94157125     0.00200
C2484       C  0.51039297  0.17263770  0.95237138    -0.22700
C2485       C  0.51306017  0.19097131  0.96741665    -0.22900
C2486       C  0.99046297  0.20165075  0.96510974     0.00100
H2487       H  0.52993725  0.16795767  0.94746819     0.13900
H2488       H  0.53457068  0.20305082  0.97649431     0.13900
N2489       N  0.81573868  0.30538354  0.95419648    -0.02400
C2490       C  0.83156720  0.33145198  0.94240193     0.00200
C2491       C  0.82319145  0.35633570  0.94609449    -0.22700
C2492       C  0.80211219  0.34548754  0.96057328    -0.22900
C2493       C  0.79729447  0.31385515  0.96498167     0.00100
H2494       H  0.82999355  0.37913633  0.93846529     0.13900
H2495       H  0.79102455  0.35896439  0.96694596     0.13900
N2496       N  0.68628621  0.03125047  0.95356602    -0.02400
C2497       C  0.65675610  0.02111397  0.94457374     0.00200
C2498       C  0.63000697  0.00375341  0.95622588    -0.22700
C2499       C  0.65037118  0.48616819  0.97048352    -0.22900
C2500       C  0.67795604  0.01903586  0.97042937     0.00100
H2501       H  0.61159725  0.46787787  0.94932499     0.13900
H2502       H  0.63705834  0.47016979  0.98176786     0.13900
N2503       N  0.94948895  0.44101057  0.61702155    -0.26200
N2504       N  0.97052569  0.42918864  0.61944954    -0.34100
C2505       C  0.95300024  0.39491867  0.61966326     0.02100
C2506       C  0.91933441  0.38476424  0.61695645     0.08200
C2507       C  0.91785642  0.41446380  0.61533798    -0.04900
H2508       H  0.96413280  0.37881582  0.62103928     0.08800
H2509       H  0.89555062  0.41665426  0.61321710     0.10000
Cu2510     Cu  0.52164654  0.46031616  0.62112549     0.44200
Cu2511     Cu  0.96552163  0.49303372  0.61612916     0.42000
Cu2512     Cu  0.55706949  0.04149071  0.61301563     0.43900
N2513       N  0.57292925  0.49362693  0.61963548    -0.33600
N2514       N  0.58738046  0.01928184  0.61519093    -0.27800
C2515       C  0.62140298  0.03436675  0.61640887    -0.03900
C2516       C  0.62965608  0.00885669  0.61656770     0.08300
C2517       C  0.59707244  0.48501434  0.61968412     0.02100
H2518       H  0.63860311  0.06154560  0.61674045     0.09700
H2519       H  0.59246683  0.45929750  0.62090817     0.08800
N2520       N  0.52076157  0.05639823  0.61087567    -0.35000
N2521       N  0.98767917  0.03573770  0.60949807    -0.27200
C2522       C  0.97181254  0.05401331  0.61079742    -0.02500
C2523       C  0.99608353  0.08811019  0.61216486     0.06200
C2524       C  0.52668248  0.08844769  0.61235934     0.04200
H2525       H  0.94477652  0.04309941  0.61187677     0.09400
H2526       H  0.55129221  0.11025039  0.61508646     0.08200
N2527       N  0.99160146  0.11510667  0.61917218    -0.02400
C2528       C  0.50814007  0.14744381  0.61375884     0.00200
C2529       C  0.00910414  0.16921124  0.62693131    -0.22700
C2530       C  0.99169575  0.14886034  0.64118228    -0.22900
C2531       C  0.98134018  0.11581604  0.63605721     0.00100
H2532       H  0.01909332  0.19639285  0.62603340     0.13900
H2533       H  0.98519158  0.15702245  0.65340390     0.13900
N2534       N  0.66250280  0.01197518  0.61716706    -0.02400
C2535       C  0.67359827  0.99726545  0.60534982     0.00200
C2536       C  0.70342409  0.99993792  0.61172960    -0.22700
C2537       C  0.71073048  0.01698882  0.62794348    -0.22900
C2538       C  0.68549125  0.02478440  0.63071057     0.00100
H2539       H  0.71988606  0.99344776  0.60452116     0.13900
H2540       H  0.73315305  0.02484775  0.63614156     0.13900
N2541       N  0.89135216  0.35047269  0.61572910    -0.02400
C2542       C  0.86395501  0.33965990  0.60477421     0.00200
C2543       C  0.84039985  0.30628777  0.60858637    -0.22700
C2544       C  0.85412501  0.29594600  0.62205453    -0.22900
C2545       C  0.88581418  0.32319703  0.62582488     0.00100
H2546       H  0.81698977  0.29037993  0.60137390     0.13900
H2547       H  0.84279902  0.27081918  0.62792194     0.13900
N2548       N  0.90530811  0.20305381  0.69151196    -0.26200
N2549       N  0.88654270  0.21670204  0.69578340    -0.34100
C2550       C  0.90615083  0.25092942  0.69610008     0.02100
C2551       C  0.93867191  0.25875170  0.69200779     0.08200
C2552       C  0.93719785  0.22806534  0.68890062    -0.04900
H2553       H  0.89735307  0.26841610  0.69927848     0.08800
H2554       H  0.95755614  0.22412843  0.68472483     0.10000
Cu2555     Cu  0.83506684  0.18766230  0.70090195     0.44200
Cu2556     Cu  0.88792890  0.15104773  0.69030110     0.42000
Cu2557     Cu  0.80002361  0.09643769  0.70150270     0.43900
N2558       N  0.78378134  0.15302977  0.70381058    -0.33600
N2559       N  0.77067714  0.11959835  0.70380896    -0.27800
C2560       C  0.73667594  0.10464985  0.70365314    -0.03900
C2561       C  0.72809488  0.12997056  0.70406078     0.08300
C2562       C  0.75856621  0.16022221  0.70375338     0.02100
H2563       H  0.71964981  0.07759262  0.70216414     0.09700
H2564       H  0.76212838  0.18545785  0.70183529     0.08800
N2565       N  0.83353989  0.07881604  0.69679683    -0.35000
N2566       N  0.86541740  0.09840371  0.69212112    -0.27200
C2567       C  0.87917521  0.07866127  0.68878248    -0.02500
C2568       C  0.85466436  0.04512477  0.69172176     0.06200
C2569       C  0.82617766  0.04619146  0.69673362     0.04200
H2570       H  0.90482728  0.08814534  0.68445000     0.09400
H2571       H  0.80143166  0.02478592  0.69922735     0.08200
N2572       N  0.69596610  0.12670468  0.69926666    -0.02400
C2573       C  0.68261033  0.14482905  0.70652518     0.00200
C2574       C  0.65967129  0.14582100  0.69455522    -0.22700
C2575       C  0.65749875  0.12624062  0.67997525    -0.22900
C2576       C  0.67960824  0.11444015  0.68336513     0.00100
H2577       H  0.64456837  0.15777415  0.69665761     0.13900
H2578       H  0.64090365  0.12041480  0.66841454     0.13900
N2579       N  0.85605838  0.01453410  0.68828764    -0.02400
C2580       C  0.84001989  0.98559509  0.69801994     0.00200
C2581       C  0.84520085  0.96071522  0.69049683    -0.22700
C2582       C  0.86551545  0.97513323  0.67582041    -0.22900
C2583       C  0.87203899  0.00830787  0.67487692     0.00100
H2584       H  0.83859187  0.93630586  0.69633048     0.13900
H2585       H  0.87690168  0.96373597  0.66779641     0.13900
N2586       N  0.96849618  0.29168741  0.69106158    -0.02400
C2587       C  0.99722449  0.30163471  0.70079825     0.00200
C2588       C  0.02330602  0.33060726  0.69312600    -0.22700
C2589       C  0.00998118  0.33877050  0.67851409    -0.22900
C2590       C  0.97614523  0.31468350  0.67777226     0.00100
H2591       H  0.04824725  0.34655219  0.69886221     0.13900
H2592       H  0.02299211  0.36104445  0.67011422     0.13900
N2593       N  0.58583782  0.07557803  0.36988115    -0.26200
N2594       N  0.56518617  0.08803978  0.36788723    -0.34100
C2595       C  0.58374687  0.12195587  0.36514843     0.02100
C2596       C  0.61755718  0.13119840  0.36596995     0.08200
C2597       C  0.61782747  0.10107247  0.36839032    -0.04900
H2598       H  0.57337644  0.13831667  0.36217500     0.08800
H2599       H  0.63969660  0.09773961  0.36836496     0.10000
Cu2600     Cu  0.01274370  0.05763445  0.36801439     0.44200
Cu2601     Cu  0.57139871  0.02446103  0.37359592     0.42000
Cu2602     Cu  0.99195250  0.46851139  0.37771193     0.43900
N2603       N  0.96154487  0.02086216  0.36839982    -0.33600
N2604       N  0.95757735  0.48604144  0.37600663    -0.27800
C2605       C  0.92370520  0.46672665  0.37617341    -0.03900
C2606       C  0.91025137  0.48806337  0.37533691     0.08300
C2607       C  0.93441975  0.02535500  0.36808807     0.02100
H2608       H  0.90996737  0.43924945  0.37700309     0.09700
H2609       H  0.93556166  0.04975731  0.36750993     0.08800
N2610       N  0.02959647  0.45531319  0.37929323    -0.35000
N2611       N  0.56205514  0.47771617  0.37686593    -0.27200
C2612       C  0.57999063  0.46139505  0.37757133    -0.02500
C2613       C  0.55767635  0.42729045  0.38073046     0.06200
C2614       C  0.02578390  0.42414617  0.38154660     0.04200
H2615       H  0.60694883  0.47331411  0.37560542     0.09400
H2616       H  0.00167939  0.40107221  0.38259185     0.08200
N2617       N  0.56427711  0.39935595  0.38013541    -0.02400
C2618       C  0.54970148  0.37122050  0.39062496     0.00200
C2619       C  0.55598865  0.34654073  0.38391595    -0.22700
C2620       C  0.57581710  0.36023691  0.36905180    -0.22900
C2621       C  0.58125423  0.39294098  0.36729539     0.00100
H2622       H  0.54896109  0.32216990  0.38993516     0.13900
H2623       H  0.58611689  0.34807593  0.36078835     0.13900
N2624       N  0.64614574  0.16281452  0.36040646    -0.02400
C2625       C  0.67757381  0.17651811  0.36791533     0.00200
C2626       C  0.70153496  0.19185551  0.35461757    -0.22700
C2627       C  0.68443308  0.19035141  0.33897873    -0.22900
C2628       C  0.65060717  0.17299599  0.34306539     0.00100
H2629       H  0.72862711  0.20466907  0.35619425     0.13900
H2630       H  0.69551621  0.20220523  0.32632131     0.13900
N2631       N  0.87490602  0.47772836  0.37453690    -0.02400
C2632       C  0.85806374  0.49003025  0.38410981     0.00200
C2633       C  0.82368376  0.47097802  0.38046684    -0.22700
C2634       C  0.81906474  0.44655394  0.36827924    -0.22900
C2635       C  0.85063504  0.45120769  0.36482554     0.00100
H2636       H  0.80394765  0.47446620  0.38621565     0.13900
H2637       H  0.79526455  0.42753964  0.36241655     0.13900
N2638       N  0.61283537  0.28538681  0.28659326    -0.26200
N2639       N  0.63293104  0.27212835  0.28699826    -0.34100
C2640       C  0.61424203  0.23801504  0.28598943     0.02100
C2641       C  0.58068121  0.22925944  0.28484870     0.08200
C2642       C  0.58050371  0.25978227  0.28521981    -0.04900
H2643       H  0.62442490  0.22098248  0.28620251     0.08800
H2644       H  0.55860718  0.26305779  0.28494473     0.10000
Cu2645     Cu  0.68500718  0.30041060  0.28932344     0.44200
Cu2646     Cu  0.63155708  0.33806925  0.28854060     0.42000
Cu2647     Cu  0.72534473  0.39045877  0.29225571     0.43900
N2648       N  0.73683796  0.33091830  0.29194224    -0.33600
N2649       N  0.75248167  0.36446455  0.29334691    -0.27800
C2650       C  0.78604949  0.37641043  0.29525246    -0.03900
C2651       C  0.79122955  0.34875259  0.29477093     0.08300
C2652       C  0.75963877  0.32046723  0.29274040     0.02100
H2653       H  0.80499488  0.40298088  0.29659376     0.09700
H2654       H  0.75350534  0.29416300  0.29227610     0.08800
N2655       N  0.69215971  0.40977707  0.29103454    -0.35000
N2656       N  0.65871023  0.39149413  0.29013442    -0.27200
C2657       C  0.64601500  0.41281803  0.29074971    -0.02500
C2658       C  0.67279958  0.44592869  0.29145745     0.06200
C2659       C  0.70147010  0.44294225  0.29204906     0.04200
H2660       H  0.61940833  0.40473168  0.29111945     0.09400
H2661       H  0.72721210  0.46335358  0.29393282     0.08200
N2662       N  0.67198176  0.47659702  0.29553175    -0.02400
C2663       C  0.69092764  0.50702140  0.28721136     0.00200
C2664       C  0.69874074  0.53341660  0.29912578    -0.22700
C2665       C  0.68236809  0.51896486  0.31484107    -0.22900
C2666       C  0.66582760  0.48426149  0.31213628     0.00100
H2667       H  0.66896613  0.04950032  0.27927921     0.13900
H2668       H  0.68193112  0.53227489  0.32678790     0.13900
N2669       N  0.82245680  0.34828540  0.29632629    -0.02400
C2670       C  0.83248195  0.33152465  0.28517519     0.00200
C2671       C  0.86010750  0.33079543  0.29244440    -0.22700
C2672       C  0.86765538  0.34818760  0.30849347    -0.22900
C2673       C  0.84409931  0.35851687  0.31056370     0.00100
H2674       H  0.87491966  0.32127428  0.28603946     0.13900
H2675       H  0.88906448  0.35424353  0.31721378     0.13900
N2676       N  0.55184656  0.19527318  0.28472557    -0.02400
C2677       C  0.52273467  0.18330474  0.27486749     0.00200
C2678       C  0.50065023  0.14984874  0.27975831    -0.22700
C2679       C  0.51627342  0.14117464  0.29284703    -0.22900
C2680       C  0.54802635  0.16892498  0.29520550     0.00100
H2681       H  0.47651740  0.13246925  0.27365061     0.13900
H2682       H  0.50578357  0.11686420  0.29954731     0.13900
N2683       N  0.84014481  0.13355508  0.44682945    -0.26200
N2684       N  0.80765928  0.12421986  0.44625788    -0.34100
C2685       C  0.78907281  0.09013437  0.44515570     0.02100
C2686       C  0.81091338  0.07743032  0.44484729     0.08200
C2687       C  0.84312911  0.10543071  0.44598200    -0.04900
H2688       H  0.76177737  0.07583527  0.44454924     0.08800
H2689       H  0.86677747  0.10536909  0.44644281     0.10000
Cu2690     Cu  0.78900195  0.15738940  0.44732003     0.44200
Cu2691     Cu  0.87856819  0.18422754  0.44964487     0.42000
Cu2692     Cu  0.84665090  0.24249786  0.45956954     0.43900
N2693       N  0.77468885  0.19376387  0.45009496    -0.33600
N2694       N  0.79580690  0.22536836  0.45520836    -0.27800
C2695       C  0.77873775  0.24237264  0.45672230    -0.03900
C2696       C  0.74525628  0.22010890  0.45221305     0.08300
C2697       C  0.74361198  0.18960665  0.44808795     0.02100
H2698       H  0.78999730  0.26869719  0.46082054     0.09700
H2699       H  0.72132446  0.16576172  0.44465870     0.08800
N2700       N  0.89722378  0.25616797  0.45947071    -0.35000
N2701       N  0.90946682  0.23610895  0.45518257    -0.27200
C2702       C  0.94353221  0.25423312  0.45645645    -0.02500
C2703       C  0.95278636  0.28727221  0.46134036     0.06200
C2704       C  0.92282678  0.28712450  0.46375601     0.04200
H2705       H  0.96006893  0.24380443  0.45470302     0.09400
H2706       H  0.91964345  0.30739793  0.46921709     0.08200
N2707       N  0.98503303  0.31337298  0.46799246    -0.02400
C2708       C  0.99975864  0.34662487  0.46314229     0.00200
C2709       C  0.51929743  0.36694520  0.47750369    -0.22700
C2710       C  0.51759343  0.34561633  0.49111805    -0.22900
C2711       C  0.99607908  0.31256436  0.48482048     0.00100
H2712       H  0.53704690  0.39400828  0.47703282     0.13900
H2713       H  0.53311015  0.35312968  0.50318268     0.13900
N2714       N  0.71664461  0.22518166  0.45368695    -0.02400
C2715       C  0.68787383  0.20878837  0.44375440     0.00200
C2716       C  0.66432727  0.21690877  0.44996974    -0.22700
C2717       C  0.67941641  0.23938623  0.46405352    -0.22900
C2718       C  0.71179241  0.24455106  0.46576247     0.00100
H2719       H  0.64026030  0.21018405  0.44373338     0.13900
H2720       H  0.66887328  0.25252696  0.47129450     0.13900
N2721       N  0.80169554  0.04215108  0.44420775    -0.02400
C2722       C  0.81674664  0.02790852  0.43468727     0.00200
C2723       C  0.79155969  0.48382064  0.43920047    -0.22700
C2724       C  0.76527004  0.47751363  0.45018150    -0.22900
C2725       C  0.77505228  0.01577629  0.45252569     0.00100
H2726       H  0.79602462  0.46485617  0.43300584     0.13900
H2727       H  0.74550737  0.45280188  0.45453003     0.13900
N2728       N  0.60051378  0.29528153  0.53566219    -0.26200
N2729       N  0.61660608  0.27798054  0.53791243    -0.34100
C2730       C  0.59363189  0.24447612  0.53794550     0.02100
C2731       C  0.56170556  0.24059418  0.53555659     0.08200
C2732       C  0.56714655  0.27338844  0.53405315    -0.04900
H2733       H  0.60001143  0.22453168  0.53821030     0.08800
H2734       H  0.54870847  0.28112487  0.53132957     0.10000
Cu2735     Cu  0.66948767  0.30046810  0.53831728     0.44200
Cu2736     Cu  0.62378772  0.34776336  0.53287138     0.42000
Cu2737     Cu  0.71258161  0.39239955  0.53078544     0.43900
N2738       N  0.72211235  0.33125353  0.53620895    -0.33600
N2739       N  0.73676018  0.36443084  0.53336163    -0.27800
C2740       C  0.76999862  0.37719808  0.53130243    -0.03900
C2741       C  0.77720991  0.35130031  0.53352659     0.08300
C2742       C  0.74618693  0.32215429  0.53608716     0.02100
H2743       H  0.78733873  0.40311108  0.52736089     0.09700
H2744       H  0.74125801  0.29629207  0.53699535     0.08800
N2745       N  0.68490459  0.41686373  0.52840113    -0.35000
N2746       N  0.65160228  0.40010916  0.52934231    -0.27200
C2747       C  0.64028177  0.42220779  0.52734562    -0.02500
C2748       C  0.66793936  0.45426196  0.52510648     0.06200
C2749       C  0.69591993  0.45017618  0.52571537     0.04200
H2750       H  0.61395938  0.41537848  0.52720916     0.09400
H2751       H  0.72211474  0.46960874  0.52446103     0.08200
N2752       N  0.66674876  0.48487832  0.52189884    -0.02400
C2753       C  0.65235373  0.49758226  0.53290867     0.00200
C2754       C  0.64611780  0.02106064  0.51911269    -0.22700
C2755       C  0.65927940  0.02385822  0.50220990    -0.22900
C2756       C  0.67195534  0.50113732  0.50597430     0.00100
H2757       H  0.63539508  0.03584758  0.52426754     0.13900
H2758       H  0.66130233  0.04164993  0.49191110     0.13900
N2759       N  0.80855983  0.35370281  0.52841964    -0.02400
C2760       C  0.83899123  0.37785176  0.53513831     0.00200
C2761       C  0.86260431  0.38939539  0.52146066    -0.22700
C2762       C  0.84678967  0.37050092  0.50636541    -0.22900
C2763       C  0.81396589  0.34845400  0.51119587     0.00100
H2764       H  0.88958188  0.40610367  0.52301136     0.13900
H2765       H  0.85844772  0.37117047  0.49369165     0.13900
N2766       N  0.53149354  0.20931376  0.53064114    -0.02400
C2767       C  0.52133491  0.17829247  0.53794675     0.00200
C2768       C  0.49520120  0.15352786  0.52763910    -0.22700
C2769       C  0.48845870  0.16995483  0.51402805    -0.22900
C2770       C  0.51089497  0.20421515  0.51628351     0.00100
H2771       H  0.97991440  0.12702550  0.53089992     0.13900
H2772       H  0.96734759  0.15815335  0.50438539     0.13900
C2773       C  0.73030418  0.51774046  0.49768164    -0.04700
C2774       C  0.69632973  0.50325696  0.49235904     0.01200
C2775       C  0.69010996  0.99441722  0.47085809    -0.07300
C2776       C  0.71635586  0.00039410  0.45905506    -0.04700
C2777       C  0.75039408  0.01725587  0.46472362     0.01200
C2778       C  0.75547805  0.52170095  0.48563477    -0.07200
C2779       C  0.79142449  0.53527526  0.49250640     0.63100
H2780       H  0.73698264  0.52585896  0.51149950     0.13800
H2781       H  0.71043622  0.99090402  0.44538680     0.13800
C2782       C  0.65352921  0.97433828  0.46465419     0.63400
F2783       F  0.79354401  0.53828993  0.51103961    -0.21800
F2784       F  0.81454606  0.07530966  0.48222994    -0.19100
F2785       F  0.80315123  0.51360752  0.48765113    -0.18800
F2786       F  0.63902429  0.99476497  0.46521667    -0.18900
F2787       F  0.63133800  0.44720328  0.47845722    -0.19200
F2788       F  0.65054776  0.96234604  0.44726378    -0.21900
C2789       C  0.74880494  0.26177684  0.49270563    -0.04700
C2790       C  0.73845399  0.27138435  0.47708075     0.01200
C2791       C  0.75476812  0.30605921  0.47195950    -0.07300
C2792       C  0.77912311  0.33049586  0.48362501    -0.04700
C2793       C  0.78880481  0.32101089  0.49954952     0.01200
C2794       C  0.77494571  0.28594613  0.50368578    -0.07200
C2795       C  0.78786302  0.27220551  0.51857968     0.63100
H2796       H  0.73727001  0.23495723  0.49595340     0.13800
H2797       H  0.79101441  0.35729860  0.48035831     0.13800
C2798       C  0.74754079  0.31696697  0.45392390     0.63400
F2799       F  0.79740762  0.25037139  0.51113089    -0.21800
F2800       F  0.76232304  0.25413454  0.53066581    -0.19100
F2801       F  0.81547711  0.29713243  0.52784233    -0.18800
F2802       F  0.75344514  0.29995205  0.44032057    -0.18900
F2803       F  0.76799653  0.35154842  0.45109740    -0.19200
F2804       F  0.71431933  0.30951742  0.45297212    -0.21900
C2805       C  0.51370661  0.26930232  0.48313108    -0.04700
C2806       C  0.99627248  0.28250606  0.49245259     0.01200
C2807       C  0.98252724  0.26894178  0.50941339    -0.07300
C2808       C  0.48773402  0.24315039  0.51681954    -0.04700
C2809       C  0.50607597  0.23082551  0.50755680     0.01200
C2810       C  0.51858840  0.24332787  0.49030715    -0.07200
C2811       C  0.53758815  0.22968376  0.47983094     0.63100
H2812       H  0.52388207  0.27994892  0.47010992     0.13800
H2813       H  0.47783299  0.23258639  0.52989404     0.13800
C2814       C  0.96325829  0.28224313  0.51995175     0.63400
F2815       F  0.54797221  0.24545906  0.46333274    -0.21800
F2816       F  0.51697990  0.19515916  0.47684950    -0.19100
F2817       F  0.56587500  0.23508016  0.48952379    -0.18800
F2818       F  0.93736392  0.28067252  0.50941159    -0.18900
F2819       F  0.98473198  0.31561041  0.52506071    -0.19200
F2820       F  0.94928620  0.26340057  0.53532813    -0.21900
C2821       C  0.84168143  0.39526737  0.35583202    -0.04700
C2822       C  0.85524665  0.42979624  0.35154419     0.01200
C2823       C  0.86488403  0.44081012  0.33366825    -0.07300
C2824       C  0.86059749  0.41655487  0.32061503    -0.04700
C2825       C  0.84636948  0.38200232  0.32487766     0.01200
C2826       C  0.83708844  0.37102584  0.34272743    -0.07200
C2827       C  0.82148477  0.33374191  0.34769200     0.63100
H2828       H  0.83352363  0.38728874  0.36947115     0.13800
H2829       H  0.86814636  0.42430222  0.30688480     0.13800
C2830       C  0.87869454  0.47771141  0.32828320     0.63400
F2831       F  0.81186880  0.32806192  0.36549828    -0.21800
F2832       F  0.84456217  0.32294048  0.34500876    -0.19100
F2833       F  0.79313445  0.31448885  0.33708917    -0.18800
F2834       F  0.90917971  0.49789472  0.33695707    -0.18900
F2835       F  0.85622185  0.48844215  0.33285230    -0.19200
F2836       F  0.88408864  0.48229047  0.30997970    -0.21900
C2837       C  0.86423800  0.52309025  0.42928022    -0.04700
C2838       C  0.84598531  0.04440253  0.42234373     0.01200
C2839       C  0.84321993  0.05598137  0.40497100    -0.07300
C2840       C  0.86115597  0.05178686  0.39084327    -0.04700
C2841       C  0.87116732  0.51846212  0.39734240     0.01200
C2842       C  0.87794233  0.51305478  0.41529421    -0.07200
C2843       C  0.89664000  0.49407493  0.41970892     0.63100
H2844       H  0.86634119  0.51625623  0.44299774     0.13800
H2845       H  0.85746632  0.05801917  0.37725499     0.13800
C2846       C  0.81897047  0.06893577  0.40064676     0.63400
F2847       F  0.89942192  0.49082687  0.43805656    -0.21800
F2848       F  0.92892847  0.51177990  0.41298783    -0.19100
F2849       F  0.87987459  0.46173783  0.41234324    -0.18800
F2850       F  0.83045803  0.10034017  0.40855743    -0.18900
F2851       F  0.78692856  0.04638857  0.40668730    -0.19200
F2852       F  0.81637855  0.07287510  0.38235150    -0.21900
C2853       C  0.61203043  0.14852722  0.31681720    -0.04700
C2854       C  0.62375524  0.17160164  0.33116623     0.01200
C2855       C  0.61119149  0.19431562  0.33344349    -0.07300
C2856       C  0.58578452  0.19193097  0.32171971    -0.04700
C2857       C  0.57400082  0.16892444  0.30734799     0.01200
C2858       C  0.58747733  0.14698637  0.30462870    -0.07200
C2859       C  0.57692442  0.12284086  0.28866521     0.63100
H2860       H  0.62248674  0.13187471  0.31519226     0.13800
H2861       H  0.57551418  0.20874382  0.32334106     0.13800
C2862       C  0.62625439  0.22255397  0.34735685     0.63400
F2863       F  0.59722312  0.10833835  0.28701442    -0.21800
F2864       F  0.57933086  0.14026988  0.27296619    -0.19100
F2865       F  0.54408069  0.09675792  0.29066492    -0.18800
F2866       F  0.65981571  0.24411805  0.34341464    -0.18900
F2867       F  0.62367409  0.20918735  0.36435051    -0.19200
F2868       F  0.61021997  0.24164289  0.34740533    -0.21900
C2869       C  0.66817346  0.15819051  0.40012845    -0.04700
C2870       C  0.68447284  0.18468479  0.38759240     0.01200
C2871       C  0.70369619  0.21883347  0.39422664    -0.07300
C2872       C  0.70513994  0.22447187  0.41281196    -0.04700
C2873       C  0.68740404  0.19816701  0.42497328     0.01200
C2874       C  0.66870032  0.16430888  0.41868740    -0.07200
C2875       C  0.64863645  0.13386329  0.43074367     0.63100
H2876       H  0.65451849  0.13220036  0.39555359     0.13800
H2877       H  0.71947612  0.25009070  0.41811110     0.13800
C2878       C  0.72204878  0.25001322  0.38227291     0.63400
F2879       F  0.61471349  0.11919278  0.42632297    -0.21800
F2880       F  0.65265058  0.14212727  0.44880125    -0.19100
F2881       F  0.65882737  0.11015390  0.42803005    -0.18800
F2882       F  0.70115507  0.24900979  0.36850992    -0.18900
F2883       F  0.75069692  0.25154008  0.37538248    -0.19200
F2884       F  0.73223765  0.28005219  0.39161372    -0.21900
C2885       C  0.58851377  0.42521348  0.33924759    -0.04700
C2886       C  0.60345195  0.41711209  0.35352408     0.01200
C2887       C  0.63902120  0.43099416  0.35409852    -0.07300
C2888       C  0.65837665  0.45162762  0.33985294    -0.04700
C2889       C  0.64341864  0.45948370  0.32554726     0.01200
C2890       C  0.60812854  0.44694004  0.32535413    -0.07200
C2891       C  0.59162275  0.45769702  0.31095357     0.63100
H2892       H  0.56138573  0.41467264  0.33921554     0.13800
H2893       H  0.68555965  0.46256480  0.33994991     0.13800
C2894       C  0.65672113  0.42566718  0.37011781     0.63400
F2895       F  0.55704496  0.44247863  0.31316248    -0.21800
F2896       F  0.59744733  0.44879182  0.29418682    -0.19100
F2897       F  0.60500224  0.49256567  0.31176308    -0.18800
F2898       F  0.64693228  0.39165316  0.37186296    -0.18900
F2899       F  0.64857924  0.43679990  0.38549299    -0.19200
F2900       F  0.69151432  0.44370027  0.36851256    -0.21900
C2901       C  0.00295602  0.35856635  0.41217943    -0.04700
C2902       C  0.53782858  0.36998762  0.40918210     0.01200
C2903       C  0.55994588  0.37707281  0.42406999    -0.07300
C2904       C  0.54635539  0.36950659  0.44134263    -0.04700
C2905       C  0.01149723  0.35764654  0.44445166     0.01200
C2906       C  0.99024862  0.35470156  0.42970537    -0.07200
C2907       C  0.95506045  0.34940283  0.43169973     0.63100
H2908       H  0.98614508  0.35349324  0.40077099     0.13800
H2909       H  0.56269982  0.37247313  0.45267404     0.13800
C2910       C  0.59785315  0.39302122  0.42182676     0.63400
F2911       F  0.95129343  0.37210345  0.42079019    -0.21800
F2912       F  0.94893623  0.35520564  0.44907572    -0.19100
F2913       F  0.93156283  0.31664619  0.42649390    -0.18800
F2914       F  0.61001367  0.42419449  0.41353498    -0.18900
F2915       F  0.60529435  0.37229703  0.41158223    -0.19200
F2916       F  0.61461421  0.39836355  0.43815599    -0.21900
C2917       C  0.91559882  0.33837107  0.65524807    -0.04700
C2918       C  0.90990620  0.32152914  0.63873240     0.01200
C2919       C  0.92566462  0.30192764  0.63521241    -0.07300
C2920       C  0.94621732  0.29939138  0.64862380    -0.04700
C2921       C  0.95173740  0.31606453  0.66511173     0.01200
C2922       C  0.93657862  0.33616194  0.66856632    -0.07200
C2923       C  0.94260924  0.35517222  0.68621775     0.63100
H2924       H  0.90326037  0.35310464  0.65764019     0.13800
H2925       H  0.95877014  0.28485517  0.64624672     0.13800
C2926       C  0.92217976  0.28503897  0.61712399     0.63400
F2927       F  0.97666102  0.37800776  0.68854869    -0.21800
F2928       F  0.93164263  0.33240220  0.70030489    -0.19100
F2929       F  0.92551082  0.37321147  0.68678750    -0.18800
F2930       F  0.94137072  0.26918542  0.61629312    -0.18900
F2931       F  0.93312408  0.30936956  0.60382731    -0.19200
F2932       F  0.88893211  0.26070378  0.61379869    -0.21900
C2933       C  0.84371244  0.37174718  0.58623718    -0.04700
C2934       C  0.86322624  0.35579851  0.58759861     0.01200
C2935       C  0.87790363  0.35117580  0.57200302    -0.07300
C2936       C  0.87050692  0.36052824  0.55537294    -0.04700
C2937       C  0.84985558  0.37525751  0.55375121     0.01200
C2938       C  0.83797501  0.38298145  0.56957700    -0.07200
C2939       C  0.81965387  0.40304480  0.56955736     0.63100
H2940       H  0.83278058  0.37532294  0.59830556     0.13800
H2941       H  0.87970244  0.35485597  0.54327728     0.13800
C2942       C  0.90026511  0.33520219  0.57272315     0.63400
F2943       F  0.83010710  0.42500230  0.58413709    -0.21800
F2944       F  0.78530430  0.38095539  0.57083037    -0.19100
F2945       F  0.82640791  0.42263063  0.55427285    -0.18800
F2946       F  0.88261093  0.30276965  0.57975644    -0.18900
F2947       F  0.92836354  0.35505007  0.58329831    -0.19200
F2948       F  0.91145838  0.33272494  0.55589289    -0.21900
C2949       C  0.68320075  0.02654833  0.57677389    -0.04700
C2950       C  0.66593997  0.99564317  0.58593661     0.01200
C2951       C  0.63860519  0.46575186  0.58114183    -0.07300
C2952       C  0.63439990  0.46793453  0.56246135    -0.04700
C2953       C  0.65566410  0.49755826  0.55276961     0.01200
C2954       C  0.67965759  0.02879206  0.55818652    -0.07200
C2955       C  0.70252250  0.06248831  0.54893379     0.63100
H2956       H  0.70049971  0.04903306  0.58437678     0.13800
H2957       H  0.61474758  0.44607222  0.55534467     0.13800
C2958       C  0.61618373  0.43192007  0.59017924     0.63400
F2959       F  0.72661456  0.08608884  0.56060062    -0.21800
F2960       F  0.68372796  0.07639568  0.54229392    -0.19100
F2961       F  0.71943171  0.05749158  0.53505482    -0.18800
F2962       F  0.58304945  0.42488122  0.58943040    -0.18900
F2963       F  0.62511391  0.43135243  0.60792777    -0.19200
F2964       F  0.61842074  0.40646878  0.58116267    -0.21900
C2965       C  0.66320632  0.03417251  0.65883605    -0.04700
C2966       C  0.68625217  0.04800830  0.64483108     0.01200
C2967       C  0.70864538  0.08365682  0.64408393    -0.07300
C2968       C  0.70683715  0.10447979  0.65748761    -0.04700
C2969       C  0.68332999  0.09070411  0.67129374     0.01200
C2970       C  0.66129344  0.05503169  0.67216478    -0.07200
C2971       C  0.63558860  0.03918495  0.68696919     0.63100
H2972       H  0.64633390  0.00688869  0.65904334     0.13800
H2973       H  0.72310537  0.13184677  0.65703878     0.13800
C2974       C  0.73333325  0.09976572  0.62880318     0.63400
F2975       F  0.61728458  0.00404601  0.68560310    -0.21800
F2976       F  0.61308506  0.05117057  0.68605050    -0.19100
F2977       F  0.65199416  0.04748211  0.70346320    -0.18800
F2978       F  0.71597509  0.09097878  0.61257568    -0.18900
F2979       F  0.75650857  0.08861742  0.62906603    -0.19200
F2980       F  0.75106399  0.13492610  0.63005998    -0.21900
C2981       C  0.92127418  0.07265911  0.63873650    -0.04700
C2982       C  0.95440787  0.08603207  0.64537660     0.01200
C2983       C  0.96055537  0.07292925  0.66131404    -0.07300
C2984       C  0.93282453  0.04717290  0.67048377    -0.04700
C2985       C  0.89962386  0.03465864  0.66414973     0.01200
C2986       C  0.89355837  0.04691060  0.64790839    -0.07200
C2987       C  0.85800884  0.03276325  0.64043133     0.63100
H2988       H  0.91726482  0.08315313  0.62648144     0.13800
H2989       H  0.93673856  0.03687686  0.68284659     0.13800
C2990       C  0.99619681  0.08591161  0.66839405     0.63400
F2991       F  0.83875222  0.03907691  0.65231471    -0.21800
F2992       F  0.84340995  0.99800833  0.63789815    -0.19100
F2993       F  0.85772259  0.04733580  0.62411432    -0.18800
F2994       F  0.01118437  0.12021851  0.67236965    -0.18900
F2995       F  0.01497644  0.08105075  0.65552301    -0.19200
F2996       F  0.99665990  0.06905171  0.68383928    -0.21900
C2997       C  0.53852172  0.15571247  0.58491384    -0.04700
C2998       C  0.51298793  0.15718267  0.59450541     0.01200
C2999       C  0.99186189  0.16768212  0.58506738    -0.07300
C3000       C  0.99797754  0.17684077  0.56693247    -0.04700
C3001       C  0.52202248  0.17322461  0.55753574     0.01200
C3002       C  0.54252782  0.16217661  0.56631510    -0.07200
C3003       C  0.56816005  0.15591233  0.55687747     0.63100
H3004       H  0.55490969  0.14846130  0.59186097     0.13800
H3005       H  0.98247037  0.18509470  0.55982747     0.13800
C3006       C  0.96153747  0.16678667  0.59393907     0.63400
F3007       F  0.56073037  0.12280483  0.56003800    -0.21800
F3008       F  0.60003356  0.17790859  0.56374242    -0.19100
F3009       F  0.56852102  0.16040691  0.53850621    -0.18800
F3010       F  0.97203894  0.19169724  0.60699946    -0.18900
F3011       F  0.94142718  0.13521884  0.60157991    -0.19200
F3012       F  0.94172759  0.17234992  0.58169781    -0.21900
C3013       C  0.97257681  0.23077285  0.00919129    -0.04700
C3014       C  0.48314941  0.26212774  0.00660559     0.01200
C3015       C  0.49711271  0.27378410  0.98945306    -0.07300
C3016       C  0.49612942  0.25007528  0.97699455    -0.04700
C3017       C  0.98621657  0.22229000  0.97899015     0.01200
C3018       C  0.97245235  0.20869212  0.99592174    -0.07200
C3019       C  0.95838360  0.17120645  0.99993131     0.63100
H3020       H  0.96161182  0.22092961  0.02219072     0.13800
H3021       H  0.50754720  0.25844129  0.96393991     0.13800
C3022       C  0.51181450  0.31081267  0.98417351     0.63400
F3023       F  0.94532052  0.16291077  0.01705725    -0.21800
F3024       F  0.98374521  0.16312288  0.99852614    -0.19100
F3025       F  0.93280020  0.15168896  0.98781726    -0.18800
F3026       F  0.53806341  0.33132721  0.99570072    -0.18900
F3027       F  0.48705157  0.31982419  0.98506216    -0.19200
F3028       F  0.52416764  0.31676789  0.96686241    -0.21900
C3029       C  0.72181268  0.25689182  0.99388001    -0.04700
C3030       C  0.73810618  0.25245571  0.00883694     0.01200
C3031       C  0.77389821  0.27000907  0.00985851    -0.07300
C3032       C  0.79228958  0.28997085  0.99522902    -0.04700
C3033       C  0.77601463  0.29318019  0.97995328     0.01200
C3034       C  0.74029279  0.27726210  0.97931229    -0.07200
C3035       C  0.72181871  0.28064551  0.96303398     0.63100
H3036       H  0.69446124  0.24314197  0.99341663     0.13800
H3037       H  0.81964122  0.30297204  0.99548187     0.13800
C3038       C  0.79263215  0.26794567  0.02638652     0.63400
F3039       F  0.68711924  0.26093716  0.96461654    -0.21800
F3040       F  0.73122125  0.27034183  0.94774520    -0.19100
F3041       F  0.72963667  0.31410789  0.96107869    -0.18800
F3042       F  0.78853004  0.23573099  0.02794073    -0.18900
F3043       F  0.78027984  0.27529682  0.04156633    -0.19200
F3044       F  0.82693206  0.29090264  0.02559571    -0.21900
C3045       C  0.71057456  0.03652243  0.99882097    -0.04700
C3046       C  0.70142613  0.01661333  0.98323900     0.01200
C3047       C  0.71323983  0.99341771  0.98048648    -0.07300
C3048       C  0.74728789  0.49646137  0.99749883    -0.04700
C3049       C  0.75134843  0.51722516  0.01228094     0.01200
C3050       C  0.73340306  0.53523242  0.01299494    -0.07200
C3051       C  0.73497424  0.55577389  0.02943343     0.63100
H3052       H  0.69990016  0.05285916  0.00096778     0.13800
H3053       H  0.76103108  0.48269452  0.99743687     0.13800
C3054       C  0.69949640  0.96750543  0.96527124     0.63400
F3055       F  0.77381168  0.08123774  0.02959978    -0.21800
F3056       F  0.73443175  0.03371839  0.04326749    -0.19100
F3057       F  0.71238888  0.56768831  0.02808112    -0.18800
F3058       F  0.70717057  0.98367909  0.94884067    -0.18900
F3059       F  0.68524162  0.44231426  0.96829023    -0.19200
F3060       F  0.73808690  0.45152344  0.97066918    -0.21900
C3061       C  0.83637472  0.34160794  0.23473497    -0.04700
C3062       C  0.80842098  0.31091689  0.22904238     0.01200
C3063       C  0.78619564  0.28788503  0.24196246    -0.07300
C3064       C  0.79500043  0.29497187  0.26029201    -0.04700
C3065       C  0.82345581  0.32546494  0.26587690     0.01200
C3066       C  0.84382604  0.34978814  0.25294075    -0.07200
C3067       C  0.87347744  0.38425794  0.25825746     0.63100
H3068       H  0.85261381  0.35926282  0.22463674     0.13800
H3069       H  0.77930628  0.27670879  0.27030780     0.13800
C3070       C  0.75284680  0.25643122  0.23734497     0.63400
F3071       F  0.88712238  0.40534273  0.24355334    -0.21800
F3072       F  0.89867806  0.38013818  0.26622538    -0.19100
F3073       F  0.86298647  0.40038823  0.27015822    -0.18800
F3074       F  0.75405207  0.22772765  0.24252655    -0.18900
F3075       F  0.74482610  0.25393099  0.21925265    -0.19200
F3076       F  0.72725862  0.25743730  0.24659886    -0.21900
C3077       C  0.97920104  0.18256441  0.23245702    -0.04700
C3078       C  0.00657829  0.19614915  0.22064465     0.01200
C3079       C  0.53972245  0.21879398  0.22789669    -0.07300
C3080       C  0.54489485  0.21643970  0.24635153    -0.04700
C3081       C  0.51757850  0.19811796  0.25789886     0.01200
C3082       C  0.98432467  0.18571415  0.25114783    -0.07200
C3083       C  0.95387203  0.17598318  0.26278086     0.63100
H3084       H  0.95361729  0.16768160  0.22747691     0.13800
H3085       H  0.57058654  0.22752367  0.25121688     0.13800
C3086       C  0.56981036  0.24373745  0.21698491     0.63400
F3087       F  0.93853284  0.19427920  0.25731088    -0.21800
F3088       F  0.96256868  0.18330121  0.28073812    -0.19100
F3089       F  0.93091818  0.14164973  0.26082494    -0.18800
F3090       F  0.56087648  0.24643170  0.19948866    -0.18900
F3091       F  0.59402203  0.23389479  0.21687150    -0.19200
F3092       F  0.58376533  0.27565107  0.22480453    -0.21900
C3093       C  0.65432864  0.98577973  0.22866923    -0.04700
C3094       C  0.68737159  0.99696562  0.22292419     0.01200
C3095       C  0.71375334  0.00780889  0.23596199    -0.07300
C3096       C  0.70894377  0.49722126  0.25727768    -0.04700
C3097       C  0.69312376  0.51146691  0.26731194     0.01200
C3098       C  0.64639600  0.98472901  0.24683911    -0.07200
C3099       C  0.65720465  0.54130166  0.26755288     0.63100
H3100       H  0.63439584  0.97749248  0.21862339     0.13800
H3101       H  0.72135700  0.48559135  0.26432516     0.13800
C3102       C  0.74970898  0.01730737  0.23164101     0.63400
F3103       F  0.58806578  0.95881306  0.23740403    -0.21800
F3104       F  0.67869812  0.57097098  0.27666746    -0.19100
F3105       F  0.63493321  0.51738494  0.27940281    -0.18800
F3106       F  0.77061748  0.05192647  0.23417139    -0.18900
F3107       F  0.75302741  0.00885616  0.21429022    -0.19200
F3108       F  0.73855111  0.46638549  0.23908234    -0.21900
C3109       C  0.51078920  0.32394329  0.07240080    -0.04700
C3110       C  0.49717120  0.33636155  0.05943257     0.01200
C3111       C  0.48435198  0.35744989  0.06530870    -0.07300
C3112       C  0.97791929  0.35667484  0.08428988    -0.04700
C3113       C  0.98597635  0.33880443  0.09702875     0.01200
C3114       C  0.50682509  0.32738891  0.09083352    -0.07200
C3115       C  0.52576651  0.31718059  0.10396950     0.63100
H3116       H  0.52256126  0.30942902  0.06835819     0.13800
H3117       H  0.96297180  0.36809041  0.08800507     0.13800
C3118       C  0.98102802  0.38087803  0.05358697     0.63400
F3119       F  0.55968634  0.33428954  0.09973865    -0.21800
F3120       F  0.01315484  0.28049236  0.10323159    -0.19100
F3121       F  0.52299936  0.32539761  0.12151075    -0.18800
F3122       F  0.94694028  0.37003025  0.05208323    -0.18900
F3123       F  0.49077914  0.38141663  0.03577282    -0.19200
F3124       F  0.99755690  0.41358629  0.06053663    -0.21900
C3125       C  0.84409143  0.29502884  0.15528248    -0.04700
C3126       C  0.85597826  0.31362629  0.17125971     0.01200
C3127       C  0.89108788  0.33594901  0.17390536    -0.07300
C3128       C  0.91358181  0.33618025  0.16105555    -0.04700
C3129       C  0.90169698  0.31637508  0.14539528     0.01200
C3130       C  0.86644359  0.29657723  0.14202782    -0.07200
C3131       C  0.85251580  0.27830424  0.12421797     0.63100
H3132       H  0.81705569  0.27941340  0.15324311     0.13800
H3133       H  0.94060881  0.35170389  0.16313823     0.13800
C3134       C  0.90450311  0.36027876  0.18983406     0.63400
F3135       F  0.81792069  0.26492331  0.12278419    -0.21800
F3136       F  0.85903984  0.25181139  0.12242108    -0.19100
F3137       F  0.86740538  0.30098204  0.11025687    -0.18800
F3138       F  0.89592092  0.34255431  0.20581555    -0.18900
F3139       F  0.89081904  0.38146940  0.18940639    -0.19200
F3140       F  0.93931719  0.38041871  0.18952735    -0.21900
C3141       C  0.66715471  0.05231079  0.16722838    -0.04700
C3142       C  0.68013092  0.03134173  0.16204001     0.01200
C3143       C  0.68752431  0.03001434  0.14374168    -0.07300
C3144       C  0.68086135  0.04931072  0.13118044    -0.04700
C3145       C  0.66866596  0.07095121  0.13640981     0.01200
C3146       C  0.66226015  0.07302038  0.15479607    -0.07200
C3147       C  0.65250266  0.09854143  0.16144030     0.63100
H3148       H  0.66167660  0.05295673  0.18128553     0.13800
H3149       H  0.68706789  0.04927390  0.11718750     0.13800
C3150       C  0.70487840  0.01060168  0.13771286     0.63400
F3151       F  0.64818781  0.09680217  0.17986308    -0.21800
F3152       F  0.62253447  0.09232447  0.15344327    -0.19100
F3153       F  0.67758638  0.13116222  0.15726757    -0.18800
F3154       F  0.68387525  0.97606383  0.14000535    -0.18900
F3155       F  0.73419255  0.02115685  0.14770422    -0.19200
F3156       F  0.71352110  0.01613692  0.11976421    -0.21900
C3157       C  0.63797384  0.14706559  0.05868787    -0.04700
C3158       C  0.66100954  0.18229074  0.05888829     0.01200
C3159       C  0.67246859  0.19858323  0.07585131    -0.07300
C3160       C  0.66449544  0.17810630  0.09134889    -0.04700
C3161       C  0.64983021  0.14248336  0.09020104     0.01200
C3162       C  0.63483487  0.12638708  0.07357444    -0.07200
C3163       C  0.61883659  0.08821307  0.07065820     0.63100
H3164       H  0.62793575  0.13526920  0.04573673     0.13800
H3165       H  0.67473177  0.18996524  0.10426443     0.13800
C3166       C  0.69485794  0.23687928  0.07778912     0.63400
F3167       F  0.61200300  0.07943305  0.05267385    -0.21800
F3168       F  0.58859137  0.07151638  0.07954564    -0.19100
F3169       F  0.64017189  0.07681029  0.07674024    -0.18800
F3170       F  0.67703662  0.25265580  0.07241252    -0.18900
F3171       F  0.72357705  0.24835372  0.06759451    -0.19200
F3172       F  0.70521504  0.24654186  0.09540424    -0.21900
C3173       C  0.94964608  0.14241469  0.15041122    -0.04700
C3174       C  0.95559631  0.12652684  0.16499703     0.01200
C3175       C  0.93890480  0.09055828  0.16598140    -0.07300
C3176       C  0.91506924  0.07147187  0.15257325    -0.04700
C3177       C  0.90834865  0.08736624  0.13824889     0.01200
C3178       C  0.92644214  0.12331864  0.13676103    -0.07200
C3179       C  0.92169171  0.14144041  0.12075279     0.63100
H3180       H  0.96319720  0.16996954  0.14989198     0.13800
H3181       H  0.90102964  0.04394539  0.15328915     0.13800
C3182       C  0.94571137  0.07251353  0.18130378     0.63400
F3183       F  0.94649771  0.17541193  0.12025514    -0.21800
F3184       F  0.89076014  0.13987661  0.12164502    -0.19100
F3185       F  0.92327247  0.12630636  0.10495989    -0.18800
F3186       F  0.94049063  0.08366653  0.19758453    -0.18900
F3187       F  0.97870749  0.07925936  0.18064054    -0.19200
F3188       F  0.92475874  0.03756921  0.18038445    -0.21900
C3189       C  0.78479093  0.47445910  0.07452946    -0.04700
C3190       C  0.81025181  0.49186569  0.06188865     0.01200
C3191       C  0.84864359  0.00420622  0.05853745    -0.07300
C3192       C  0.85953753  0.01130160  0.07653048    -0.04700
C3193       C  0.82686207  0.49445563  0.09849492     0.01200
C3194       C  0.79283627  0.47382134  0.09271801    -0.07200
C3195       C  0.76424542  0.45272615  0.10541009     0.63100
H3196       H  0.75851770  0.46400940  0.07075667     0.13800
H3197       H  0.88639487  0.02498290  0.07934662     0.13800
C3198       C  0.87465717  0.01016738  0.04445047     0.63400
F3199       F  0.74714396  0.41939755  0.09936676    -0.21800
F3200       F  0.74196111  0.46502838  0.10575072    -0.19100
F3201       F  0.77576440  0.45279086  0.12269137    -0.18800
F3202       F  0.89870639  0.04435337  0.04392546    -0.18900
F3203       F  0.86028587  0.99972014  0.02753485    -0.19200
F3204       F  0.89041862  0.99178953  0.04892765    -0.21900
C3205       C  0.79977083  0.48459781  0.74680419    -0.04700
C3206       C  0.82802968  0.49081980  0.75728392     0.01200
C3207       C  0.85824235  0.49710808  0.74877564    -0.07300
C3208       C  0.86301078  0.99983149  0.72837654    -0.04700
C3209       C  0.83409744  0.98611688  0.71740106     0.01200
C3210       C  0.80199976  0.97400833  0.72515395    -0.07200
C3211       C  0.76890129  0.95634544  0.71469895     0.63100
H3212       H  0.77664562  0.47921829  0.75342488     0.13800
H3213       H  0.88722015  0.00859146  0.72206500     0.13800
C3214       C  0.88887214  0.50093940  0.75918193     0.63400
F3215       F  0.74878843  0.92421402  0.72175122    -0.21800
F3216       F  0.77302153  0.95277751  0.69662817    -0.19100
F3217       F  0.75234796  0.97472695  0.71640953    -0.18800
F3218       F  0.87922124  0.47386561  0.77076666    -0.18900
F3219       F  0.90384526  0.53100917  0.76884044    -0.19200
F3220       F  0.91303697  0.50147262  0.74791050    -0.21900
C3221       C  0.65460817  0.13968102  0.75489910    -0.04700
C3222       C  0.68455924  0.16325150  0.76355622     0.01200
C3223       C  0.71445114  0.18119614  0.75347717    -0.07300
C3224       C  0.71267295  0.17569118  0.73474898    -0.04700
C3225       C  0.68266568  0.15146666  0.72612175     0.01200
C3226       C  0.65305947  0.13274184  0.73651041    -0.07200
C3227       C  0.61992265  0.10453792  0.72868036     0.63100
H3228       H  0.63228514  0.12568863  0.76293131     0.13800
H3229       H  0.73514344  0.19022238  0.72691034     0.13800
C3230       C  0.74875380  0.20548167  0.76164478     0.63400
F3231       F  0.59745841  0.08521405  0.74193667    -0.21800
F3232       F  0.62579018  0.08276484  0.71844583    -0.19100
F3233       F  0.60451521  0.11825830  0.71823698    -0.18800
F3234       F  0.74823771  0.20785061  0.78012142    -0.18900
F3235       F  0.76043898  0.23757065  0.75449322    -0.19200
F3236       F  0.77112731  0.19440616  0.75743520    -0.21900
C3237       C  0.50995830  0.27826903  0.74862306    -0.04700
C3238       C  0.50137238  0.29924283  0.75842278     0.01200
C3239       C  0.99250610  0.32132956  0.74908890    -0.07300
C3240       C  0.98844457  0.31829410  0.73039847    -0.04700
C3241       C  0.99681569  0.29737491  0.72051080     0.01200
C3242       C  0.50946501  0.27805669  0.72967437    -0.07200
C3243       C  0.52320238  0.25873632  0.71951368     0.63100
H3244       H  0.51803837  0.26284871  0.75590049     0.13800
H3245       H  0.98066992  0.33403451  0.72312267     0.13800
C3246       C  0.98939627  0.34932247  0.75858997     0.63400
F3247       F  0.53599415  0.24371096  0.73100084    -0.21800
F3248       F  0.54894877  0.28075126  0.70840533    -0.19100
F3249       F  0.99660137  0.23338735  0.70894840    -0.18800
F3250       F  0.51471809  0.36730999  0.76938798    -0.18900
F3251       F  0.96179859  0.33541631  0.76973268    -0.19200
F3252       F  0.98541741  0.37045126  0.74655619    -0.21900
C3253       C  0.84316015  0.42391434  0.80926669    -0.04700
C3254       C  0.82366336  0.43836738  0.81448024     0.01200
C3255       C  0.80623236  0.42895413  0.83084412    -0.07300
C3256       C  0.80949618  0.40543049  0.84176982    -0.04700
C3257       C  0.82882640  0.39065917  0.83648923     0.01200
C3258       C  0.84544139  0.39943558  0.81977515    -0.07200
C3259       C  0.86469108  0.38330701  0.81190693     0.63100
H3260       H  0.85618469  0.43127649  0.79656824     0.13800
H3261       H  0.79638001  0.39779835  0.85443998     0.15000
C3262       C  0.78353169  0.44286544  0.83631565     0.63400
F3263       F  0.85049752  0.36896590  0.79542060    -0.21800
F3264       F  0.86431529  0.35809169  0.82251129    -0.19100
F3265       F  0.89794316  0.40822587  0.80939967    -0.18800
F3266       F  0.75893461  0.43495814  0.82322765    -0.18900
F3267       F  0.80235710  0.47781985  0.83826866    -0.19200
F3268       F  0.76759320  0.42923940  0.85241278    -0.21900
C3269       C  0.87167395  0.36361419  0.89816414    -0.04700
C3270       C  0.85211250  0.33452269  0.88753597     0.01200
C3271       C  0.83715458  0.30232013  0.89612881    -0.07300
C3272       C  0.83312981  0.30106694  0.91481343    -0.04700
C3273       C  0.84788130  0.33092090  0.92525356     0.01200
C3274       C  0.87159577  0.36173136  0.91696570    -0.07200
C3275       C  0.89585802  0.39350477  0.92736756     0.63100
H3276       H  0.88501081  0.38855432  0.89221553     0.13800
H3277       H  0.81614995  0.27675385  0.92076415     0.13800
C3278       C  0.82349008  0.26881801  0.88612475     0.63400
F3279       F  0.92827467  0.40518015  0.92124270    -0.21800
F3280       F  0.89587960  0.38741985  0.94558491    -0.19100
F3281       F  0.88744078  0.41858257  0.92464651    -0.18800
F3282       F  0.83105001  0.27342312  0.86803891    -0.18900
F3283       F  0.78883108  0.24974676  0.88805605    -0.19200
F3284       F  0.83784193  0.25074364  0.89334127    -0.21900
C3285       C  0.97853557  0.15863069  0.89162344    -0.04700
C3286       C  0.49997566  0.14381457  0.89252687     0.01200
C3287       C  0.50267433  0.12667798  0.90795645    -0.07300
C3288       C  0.48368490  0.12470686  0.92315956    -0.04700
C3289       C  0.97375699  0.15214493  0.92403382     0.01200
C3290       C  0.96893046  0.16651708  0.90804381    -0.07200
C3291       C  0.95738255  0.19268239  0.90800587     0.63100
H3292       H  0.97518401  0.16939469  0.87928600     0.13800
H3293       H  0.48481722  0.11103477  0.93487376     0.13800
C3294       C  0.52853276  0.11497344  0.91002548     0.63400
F3295       F  0.95994777  0.20683252  0.89118322    -0.21800
F3296       F  0.97708234  0.21909003  0.91967992    -0.19100
F3297       F  0.92392302  0.17732011  0.91283422    -0.18800
F3298       F  0.55915910  0.13833246  0.90275003    -0.18900
F3299       F  0.51655710  0.08368058  0.90190844    -0.19200
F3300       F  0.53474601  0.11143132  0.92793355    -0.21900
C3301       C  0.57485100  0.15006117  0.83039596    -0.04700
C3302       C  0.58907190  0.16906945  0.84606635     0.01200
C3303       C  0.62475351  0.18732135  0.84834509    -0.07300
C3304       C  0.64492502  0.18580783  0.83464539    -0.04700
C3305       C  0.63068065  0.16699776  0.81889637     0.01200
C3306       C  0.59497917  0.14884903  0.81663655    -0.07200
C3307       C  0.57647137  0.12769581  0.80022339     0.63100
H3308       H  0.54759645  0.13647987  0.82872374     0.13800
H3309       H  0.67216036  0.19902494  0.83622249     0.13800
C3310       C  0.64168736  0.20772592  0.86527392     0.63400
F3311       F  0.55776165  0.09386189  0.80510203    -0.21800
F3312       F  0.59771938  0.13040685  0.78655666    -0.19100
F3313       F  0.55472833  0.13820540  0.79357865    -0.18800
F3314       F  0.67515988  0.21586492  0.86657861    -0.18900
F3315       F  0.62535466  0.18917829  0.88035159    -0.19200
F3316       F  0.64090031  0.23780221  0.86512527    -0.21900
C3317       C  0.59240514  0.37708355  0.84074055    -0.04700
C3318       C  0.60534885  0.41053614  0.83454200     0.01200
C3319       C  0.59430277  0.41670513  0.81791573    -0.07300
C3320       C  0.56992388  0.38876498  0.80798948    -0.04700
C3321       C  0.55687517  0.35532300  0.81419170     0.01200
C3322       C  0.56804642  0.34911423  0.83077886    -0.07200
C3323       C  0.55464021  0.31317438  0.83766837     0.63100
H3324       H  0.60173756  0.37309775  0.85342918     0.13800
H3325       H  0.56083169  0.39277398  0.79523857     0.13800
C3326       C  0.60846841  0.45253900  0.81071272     0.63400
F3327       F  0.57046234  0.31262833  0.85354556    -0.21800
F3328       F  0.55996369  0.29404848  0.82504930    -0.19100
F3329       F  0.52041349  0.29835394  0.84080163    -0.18800
F3330       F  0.64316584  0.46780107  0.80928038    -0.18900
F3331       F  0.60077614  0.47146996  0.82224512    -0.19200
F3332       F  0.59524474  0.45276124  0.79391364    -0.21900
C3333       C  0.65843541  0.01980780  0.89330539    -0.04700
C3334       C  0.64831520  0.98547227  0.89038100     0.01200
C3335       C  0.63955226  0.96297361  0.90511932    -0.07300
C3336       C  0.64257709  0.97614261  0.92244999    -0.04700
C3337       C  0.65263119  0.01048821  0.92550279     0.01200
C3338       C  0.65936486  0.03249815  0.91066349    -0.07200
C3339       C  0.66640393  0.06876190  0.91215982     0.63100
H3340       H  0.66502153  0.03673984  0.88188795     0.13800
H3341       H  0.63744549  0.95961018  0.93393297     0.13800
C3342       C  0.64694396  0.42135432  0.89716080     0.63400
F3343       F  0.64440276  0.07294474  0.90091277    -0.21800
F3344       F  0.69915572  0.09082889  0.90689845    -0.19100
F3345       F  0.66201332  0.07718595  0.92931427    -0.18800
F3346       F  0.65317742  0.92123570  0.89561295    -0.18900
F3347       F  0.61847587  0.40518759  0.88628544    -0.19200
F3348       F  0.64072196  0.40226233  0.91265290    -0.21900
N3349       N  0.93680761  0.92776984  0.86283334    -0.26200
N3350       N  0.92773540  0.95141075  0.86213872    -0.34100
C3351       C  0.89373679  0.93601324  0.86207575     0.02100
C3352       C  0.88097293  0.90124508  0.86298639     0.08200
C3353       C  0.90878901  0.89679953  0.86349463    -0.04900
H3354       H  0.87947851  0.94920157  0.86158183     0.08800
H3355       H  0.90869247  0.87289396  0.86397154     0.10000
Cu3356     Cu  0.96684393  0.49591443  0.85854168     0.44200
Cu3357     Cu  0.98672485  0.93756020  0.86245161     0.42000
Cu3358     Cu  0.55274750  0.51941270  0.86391209     0.43900
N3359       N  0.00508897  0.54653548  0.86172707    -0.33600
N3360       N  0.53674171  0.55474392  0.86350653    -0.27800
C3361       C  0.55615591  0.58849386  0.86582036    -0.03900
C3362       C  0.53544084  0.60254114  0.86541353     0.08300
C3363       C  0.00319421  0.57533304  0.86269090     0.02100
H3364       H  0.58319918  0.60164288  0.86803960     0.09700
H3365       H  0.98013362  0.57646722  0.86164964     0.08800
N3366       N  0.56702380  0.48276411  0.86359208    -0.35000
N3367       N  0.53858077  0.95566500  0.86238813    -0.27200
C3368       C  0.55607538  0.93887707  0.86135781    -0.02500
C3369       C  0.59016982  0.96269371  0.86294695     0.06200
C3370       C  0.59883927  0.48862440  0.86401462     0.04200
H3371       H  0.54485049  0.91165061  0.85968987     0.09400
H3372       H  0.62091953  0.51367948  0.86432072     0.08200
N3373       N  0.61886445  0.95770933  0.86160365    -0.02400
C3374       C  0.65689782  0.47093304  0.86825816     0.00200
C3375       C  0.67141238  0.96633476  0.86543119    -0.22700
C3376       C  0.65702206  0.94503591  0.85088581    -0.22900
C3377       C  0.62475960  0.94009360  0.84888376     0.00100
H3378       H  0.69548111  0.97312997  0.87168958     0.13900
H3379       H  0.66788850  0.93238629  0.84347617     0.13900
N3380       N  0.54629645  0.63807478  0.86756104    -0.02400
C3381       C  0.53258783  0.65284617  0.87782211     0.00200
C3382       C  0.55155584  0.68795574  0.87621006    -0.22700
C3383       C  0.57734966  0.69503288  0.86472331    -0.22900
C3384       C  0.57418298  0.66422240  0.85993325     0.00100
H3385       H  0.54679881  0.70656477  0.88260220     0.13900
H3386       H  0.59575952  0.71998361  0.85994174     0.13900
N3387       N  0.84591028  0.87496203  0.86273810    -0.02400
C3388       C  0.83055052  0.84669168  0.87326773     0.00200
C3389       C  0.79642785  0.82824246  0.86880394    -0.22700
C3390       C  0.79071552  0.84510044  0.85518166    -0.22900
C3391       C  0.82127852  0.87365597  0.85175741     0.00100
H3392       H  0.77696718  0.80632563  0.87568284     0.13900
H3393       H  0.76652968  0.83821244  0.84903795     0.13900
N3394       N  0.72773171  0.89273789  0.77734677    -0.26200
N3395       N  0.74427651  0.87568448  0.77858738    -0.34100
C3396       C  0.77767975  0.89803691  0.78018534     0.02100
C3397       C  0.78220574  0.93052385  0.77936554     0.08200
C3398       C  0.75013799  0.92624257  0.77787522    -0.04900
H3399       H  0.79689247  0.89112351  0.78257974     0.08800
H3400       H  0.74345048  0.94600348  0.77845414     0.10000
Cu3401     Cu  0.72051677  0.82279040  0.77981979     0.44200
Cu3402     Cu  0.67526054  0.87100156  0.77776480     0.42000
Cu3403     Cu  0.63118601  0.78134925  0.78711090     0.43900
N3404       N  0.69047578  0.77050080  0.78353740    -0.33600
N3405       N  0.65802304  0.75568850  0.78743143    -0.27800
C3406       C  0.64612888  0.72234295  0.79050871    -0.03900
C3407       C  0.67230649  0.71586635  0.78792760     0.08300
C3408       C  0.70002445  0.74681006  0.78353747     0.02100
H3409       H  0.62040959  0.70448846  0.79410698     0.09700
H3410       H  0.72541181  0.75195172  0.78106952     0.08800
N3411       N  0.60733792  0.80971356  0.78407790    -0.35000
N3412       N  0.62296905  0.84279236  0.78083164    -0.27200
C3413       C  0.59998346  0.85331842  0.78082277    -0.02500
C3414       C  0.56856368  0.82509199  0.78372153     0.06200
C3415       C  0.57422053  0.79815636  0.78600701     0.04200
H3416       H  0.60585099  0.87945190  0.77938063     0.09400
H3417       H  0.55582175  0.77234384  0.78960223     0.08200
N3418       N  0.53746030  0.82407216  0.78788882    -0.02400
C3419       C  0.50775153  0.80421173  0.77921767     0.00200
C3420       C  0.48119702  0.79536417  0.79081991    -0.22700
C3421       C  0.49509484  0.81179786  0.80683111    -0.22900
C3422       C  0.52966009  0.82898294  0.80464969     0.00100
H3423       H  0.45453595  0.78062517  0.78765560     0.13900
H3424       H  0.48136122  0.81310334  0.81824960     0.13900
N3425       N  0.67205675  0.68418406  0.79011774    -0.02400
C3426       C  0.68800758  0.67280804  0.77931197     0.00200
C3427       C  0.68694087  0.64434191  0.78684487    -0.22700
C3428       C  0.66944109  0.63789203  0.80265878    -0.22900
C3429       C  0.66003108  0.66236879  0.80414540     0.00100
H3430       H  0.69479559  0.62792607  0.78058713     0.13900
H3431       H  0.66239227  0.61640737  0.81146613     0.13900
N3432       N  0.81187466  0.96190027  0.78433346    -0.02400
C3433       C  0.82527932  0.99090014  0.77462024     0.00200
C3434       C  0.84369172  0.01866979  0.78579961    -0.22700
C3435       C  0.84288639  0.00600711  0.80274256    -0.22900
C3436       C  0.82310879  0.97109256  0.80139550     0.00100
H3437       H  0.85812019  0.04508288  0.78188862     0.13900
H3438       H  0.85702983  0.02047161  0.81442354     0.13900
N3439       N  0.54503239  0.55703099  0.12253202    -0.26200
N3440       N  0.55472831  0.53393088  0.12303297    -0.34100
C3441       C  0.58870246  0.54980677  0.12310556     0.02100
C3442       C  0.60080993  0.58446363  0.12220759     0.08200
C3443       C  0.57262300  0.58833157  0.12191600    -0.04900
H3444       H  0.60335055  0.53702243  0.12332311     0.08800
H3445       H  0.57217501  0.61196278  0.12151516     0.10000
Cu3446     Cu  0.52461218  0.97864881  0.11597628     0.44200
Cu3447     Cu  0.49446633  0.54446012  0.12306643     0.42000
Cu3448     Cu  0.93755149  0.95867973  0.11439012     0.43900
N3449       N  0.48390428  0.92913085  0.11494299    -0.33600
N3450       N  0.95191271  0.92171282  0.11448880    -0.27800
C3451       C  0.93168123  0.88765809  0.11396133    -0.03900
C3452       C  0.95197586  0.87304350  0.11349960     0.08300
C3453       C  0.48461168  0.89978630  0.11413187     0.02100
H3454       H  0.90437093  0.87463029  0.11365838     0.09700
H3455       H  0.50733850  0.89797658  0.11381703     0.08800
N3456       N  0.92906641  0.99973783  0.11364944    -0.35000
N3457       N  0.94201888  0.52494880  0.12351883    -0.27200
C3458       C  0.92616787  0.54328063  0.12379076    -0.02500
C3459       C  0.89174823  0.52087663  0.12351248     0.06200
C3460       C  0.89881044  0.99819326  0.11296841     0.04200
H3461       H  0.93883218  0.57077933  0.12404587     0.09400
H3462       H  0.87466698  0.97489707  0.11277384     0.08200
N3463       N  0.86512213  0.52916721  0.12450208    -0.02400
C3464       C  0.83470129  0.51349632  0.11580488     0.00200
C3465       C  0.81520866  0.52720302  0.12165183    -0.22700
C3466       C  0.83402686  0.55183655  0.13409739    -0.22900
C3467       C  0.86476011  0.55317761  0.13520758     0.00100
H3468       H  0.79100652  0.52213076  0.11633096     0.13900
H3469       H  0.82662380  0.56804381  0.14099063     0.13900
N3470       N  0.63566521  0.61096175  0.12224124    -0.02400
C3471       C  0.65078014  0.63927994  0.11177583     0.00200
C3472       C  0.68472870  0.65853558  0.11645679    -0.22700
C3473       C  0.69083468  0.64170063  0.12992717    -0.22900
C3474       C  0.66053366  0.61273018  0.13319398     0.00100
H3475       H  0.70350360  0.68176515  0.11013942     0.13900
H3476       H  0.71497668  0.64920369  0.13630879     0.13900
N3477       N  0.94104621  0.83722173  0.11275596    -0.02400
C3478       C  0.95390997  0.82168167  0.10247940     0.00200
C3479       C  0.93684887  0.78704550  0.10594568    -0.22700
C3480       C  0.91367772  0.78127458  0.11897666    -0.22900
C3481       C  0.91606540  0.81222872  0.12263235     0.00100
H3482       H  0.94028376  0.76770884  0.09943489     0.13900
H3483       H  0.89759512  0.75714804  0.12536937     0.13900
N3484       N  0.77777315  0.60779846  0.19936706    -0.26200
N3485       N  0.76047614  0.62404568  0.20015883    -0.34100
C3486       C  0.72714168  0.60081886  0.20037619     0.02100
C3487       C  0.72390067  0.56872313  0.20006845     0.08200
C3488       C  0.75630733  0.57406235  0.19931581    -0.04900
H3489       H  0.70704810  0.60686176  0.20074621     0.08800
H3490       H  0.76377266  0.55497614  0.19814567     0.10000
Cu3491     Cu  0.78487828  0.67733128  0.20090158     0.44200
Cu3492     Cu  0.82985236  0.63185240  0.19775391     0.42000
Cu3493     Cu  0.87887286  0.72287311  0.20079166     0.43900
N3494       N  0.81619243  0.73038982  0.20117595    -0.33600
N3495       N  0.84966839  0.74671374  0.20088864    -0.27800
C3496       C  0.86118549  0.78044338  0.19960828    -0.03900
C3497       C  0.83374595  0.78560080  0.19961286     0.08300
C3498       C  0.80571324  0.75336488  0.20024401     0.02100
H3499       H  0.88743863  0.79945573  0.19809390     0.09700
H3500       H  0.77961619  0.74678756  0.19875504     0.08800
N3501       N  0.90065525  0.69186105  0.19911283    -0.35000
N3502       N  0.88209411  0.65841531  0.19736464    -0.27200
C3503       C  0.90240928  0.64508304  0.19557202    -0.02500
C3504       C  0.93543183  0.67139397  0.19641912     0.06200
C3505       C  0.93360958  0.70076841  0.19873270     0.04200
H3506       H  0.89360311  0.61825429  0.19392605     0.09400
H3507       H  0.95450936  0.72658975  0.19956404     0.08200
N3508       N  0.69354776  0.53611879  0.19874204    -0.02400
C3509       C  0.68481340  0.50933908  0.20985226     0.00200
C3510       C  0.65679315  0.48079611  0.20289951    -0.22700
C3511       C  0.64837791  0.49035297  0.18696478    -0.22900
C3512       C  0.67149540  0.52440593  0.18473452     0.00100
H3513       H  0.64189025  0.45668207  0.20961097     0.13900
H3514       H  0.62642774  0.47485348  0.17860641     0.13900
N3515       N  0.96546224  0.66888129  0.19428502    -0.02400
C3516       C  0.99475258  0.68496464  0.20398987     0.00200
C3517       C  0.01786655  0.67683701  0.19687290    -0.22700
C3518       C  0.00234489  0.65508157  0.18269712    -0.22900
C3519       C  0.97009156  0.65005014  0.18169908     0.00100
H3520       H  0.54257231  0.68394393  0.20237956     0.13900
H3521       H  0.01267604  0.64250569  0.17478509     0.13900
N3522       N  0.83341671  0.81637000  0.19502241    -0.02400
C3523       C  0.81950058  0.83164918  0.20458919     0.00200
C3524       C  0.82012276  0.85779261  0.19458395    -0.22700
C3525       C  0.83511327  0.85878831  0.17852271    -0.22900
C3526       C  0.84348768  0.83350034  0.17932029     0.00100
H3527       H  0.81349339  0.87631192  0.19919791     0.13900
H3528       H  0.84098309  0.87712901  0.16787241     0.13900
N3529       N  0.71768089  0.90151724  0.03123557    -0.26200
N3530       N  0.69584991  0.91263144  0.03051376    -0.34100
C3531       C  0.71282987  0.94689440  0.03022050     0.02100
C3532       C  0.74701577  0.95778109  0.03096274     0.08200
C3533       C  0.74930281  0.92846102  0.03160251    -0.04900
H3534       H  0.70108727  0.96251509  0.02947235     0.08800
H3535       H  0.77213175  0.92681106  0.03180218     0.10000
Cu3536     Cu  0.64387833  0.88021698  0.02983180     0.44200
Cu3537     Cu  0.70240547  0.84981182  0.03114676     0.42000
Cu3538     Cu  0.61175159  0.78827888  0.03001452     0.43900
N3539       N  0.59288391  0.84381408  0.02877860    -0.33600
N3540       N  0.58100901  0.81051263  0.02822006    -0.27800
C3541       C  0.54707375  0.79458510  0.02639865    -0.03900
C3542       C  0.53746546  0.81915062  0.02611145     0.08300
C3543       C  0.56695397  0.84996777  0.02765377     0.02100
H3544       H  0.53080286  0.76731943  0.02544367     0.09700
H3545       H  0.56950983  0.87501146  0.02734392     0.08800
N3546       N  0.64923984  0.77449422  0.03221463    -0.35000
N3547       N  0.68195542  0.79716614  0.03222939    -0.27200
C3548       C  0.69971439  0.78087863  0.03360929    -0.02500
C3549       C  0.67723383  0.74638189  0.03485801     0.06200
C3550       C  0.64537245  0.74297928  0.03376216     0.04200
H3551       H  0.72698412  0.79334018  0.03391879     0.09400
H3552       H  0.62136312  0.71955216  0.03396913     0.08200
N3553       N  0.77463192  0.99226497  0.02956753    -0.02400
C3554       C  0.80560145  0.00595297  0.03763996     0.00200
C3555       C  0.82278729  0.54187157  0.04221023    -0.22700
C3556       C  0.80580769  0.54964729  0.02948992    -0.22900
C3557       C  0.77571568  0.01707200  0.01883408     0.00100
H3558       H  0.84661377  0.55985661  0.04842137     0.13900
H3559       H  0.81483883  0.57402611  0.02302318     0.13900
N3560       N  0.68589909  0.71984908  0.03572933    -0.02400
C3561       C  0.67304591  0.69154532  0.04630161     0.00200
C3562       C  0.68781574  0.67219121  0.04179327    -0.22700
C3563       C  0.71023054  0.68875957  0.02842386    -0.22900
C3564       C  0.70936488  0.71821754  0.02531515     0.00100
H3565       H  0.68335886  0.64866087  0.04795503     0.13900
H3566       H  0.72567686  0.68030598  0.02173778     0.13900
N3567       N  0.50412002  0.81428501  0.02315316    -0.02400
C3568       C  0.48850440  0.82778103  0.03280063     0.00200
C3569       C  0.95877576  0.82060533  0.02394202    -0.22700
C3570       C  0.95565360  0.80199960  0.00884578    -0.22900
C3571       C  0.48338240  0.79814809  0.00895349     0.00100
H3572       H  0.93947593  0.82541355  0.02903166     0.13900
H3573       H  0.93422310  0.79055854  0.99969020     0.13900
N3574       N  0.89284757  0.68979685  0.94401379    -0.26200
N3575       N  0.88062152  0.65644231  0.94431438    -0.34100
C3576       C  0.90666729  0.65019057  0.94395004     0.02100
C3577       C  0.93640902  0.68120449  0.94331702     0.08200
C3578       C  0.92668988  0.70559875  0.94345778    -0.04900
H3579       H  0.90419447  0.62521781  0.94478796     0.08800
H3580       H  0.94295160  0.73290545  0.94350954     0.10000
Cu3581     Cu  0.82885731  0.62174523  0.94613306     0.44200
Cu3582     Cu  0.86448254  0.71414006  0.94598426     0.42000
Cu3583     Cu  0.77691862  0.66212546  0.95346130     0.43900
N3584       N  0.77610956  0.59505465  0.94780112    -0.33600
N3585       N  0.75774600  0.60985265  0.95040190    -0.27800
C3586       C  0.72503073  0.58569718  0.95140775    -0.03900
C3587       C  0.72244042  0.55426663  0.94894027     0.08300
C3588       C  0.75538123  0.56100140  0.94713790     0.02100
H3589       H  0.70484871  0.59059447  0.95469862     0.09700
H3590       H  0.76399087  0.54282960  0.94598402     0.08800
N3591       N  0.80080171  0.71517016  0.95422903    -0.35000
N3592       N  0.83329681  0.73458191  0.95079098    -0.27200
C3593       C  0.84134998  0.76753795  0.95123454    -0.02500
C3594       C  0.81246577  0.76879081  0.95529122     0.06200
C3595       C  0.78722392  0.73517700  0.95716598     0.04200
H3596       H  0.86621618  0.78887517  0.94869977     0.09400
H3597       H  0.76084855  0.72583119  0.95986901     0.08200
N3598       N  0.97055339  0.68765074  0.94524277    -0.02400
C3599       C  0.98689624  0.67453657  0.93584271     0.00200
C3600       C  0.52094284  0.69121441  0.94109495    -0.22700
C3601       C  0.52545835  0.71386127  0.95439246    -0.22900
C3602       C  0.99411033  0.71056365  0.95683341     0.00100
H3603       H  0.54032722  0.68663851  0.93583057     0.13900
H3604       H  0.54861970  0.72999737  0.96175492     0.13900
N3605       N  0.80896423  0.79876093  0.95615598    -0.02400
C3606       C  0.82434631  0.82716358  0.94572026     0.00200
C3607       C  0.81501705  0.85048996  0.95129604    -0.22700
C3608       C  0.79382935  0.83645833  0.96552556    -0.22900
C3609       C  0.78989796  0.80457914  0.96794764     0.00100
H3610       H  0.82111171  0.87435610  0.94498240     0.13900
H3611       H  0.78174699  0.84785236  0.97296857     0.13900
N3612       N  0.69285539  0.52210717  0.95276717    -0.02400
C3613       C  0.66371674  0.50760196  0.94298445     0.00200
C3614       C  0.63711427  0.48561084  0.95376073    -0.22700
C3615       C  0.64348575  0.00231947  0.97259099    -0.22900
C3616       C  0.68453708  0.50848424  0.96936938     0.00100
H3617       H  0.60351347  0.98932553  0.95252804     0.13900
H3618       H  0.62963022  0.98791202  0.98418921     0.13900
N3619       N  0.94970097  0.93115959  0.61019751    -0.26200
N3620       N  0.97065669  0.91914113  0.61215618    -0.34100
C3621       C  0.95271874  0.88497782  0.61363010     0.02100
C3622       C  0.91886723  0.87520915  0.61230965     0.08200
C3623       C  0.91779024  0.90499606  0.61019638    -0.04900
H3624       H  0.96355198  0.86870969  0.61553304     0.08800
H3625       H  0.89561806  0.90771326  0.60945226     0.10000
Cu3626     Cu  0.52329809  0.95054148  0.61383428     0.44200
Cu3627     Cu  0.96556067  0.98291133  0.60887753     0.42000
Cu3628     Cu  0.55749442  0.55052561  0.61776753     0.43900
N3629       N  0.57442925  0.98584634  0.61487666    -0.33600
N3630       N  0.58700061  0.52712885  0.61881022    -0.27800
C3631       C  0.62095805  0.54093390  0.61863014    -0.03900
C3632       C  0.62788585  0.51442898  0.61889766     0.08300
C3633       C  0.59954191  0.97862046  0.61556944     0.02100
H3634       H  0.63898644  0.56790962  0.61833235     0.09700
H3635       H  0.59601868  0.95321055  0.61558006     0.08800
N3636       N  0.52174541  0.56653416  0.61708339    -0.35000
N3637       N  0.98905662  0.54619578  0.61654957    -0.27200
C3638       C  0.97405349  0.56526496  0.61820962    -0.02500
C3639       C  0.99898515  0.59923195  0.61911339     0.06200
C3640       C  0.52874168  0.59892880  0.61883807     0.04200
H3641       H  0.94718788  0.55501447  0.61974832     0.09400
H3642       H  0.55380109  0.62019018  0.62131895     0.08200
N3643       N  0.99573265  0.62715245  0.62597105    -0.02400
C3644       C  0.51287032  0.66013327  0.62055015     0.00200
C3645       C  0.01452018  0.68155220  0.63364320    -0.22700
C3646       C  0.99621892  0.66145689  0.64779603    -0.22900
C3647       C  0.98494561  0.62823949  0.64266599     0.00100
H3648       H  0.02546899  0.70885400  0.63281314     0.13900
H3649       H  0.98981082  0.66996394  0.65992757     0.13900
N3650       N  0.66003566  0.51597580  0.62019536    -0.02400
C3651       C  0.66968494  0.49778927  0.60992769     0.00200
C3652       C  0.69859396  0.49976032  0.61734453    -0.22700
C3653       C  0.70696092  0.52013517  0.63242297    -0.22900
C3654       C  0.68315348  0.53030104  0.63358155     0.00100
H3655       H  0.71425418  0.49095654  0.61123278     0.13900
H3656       H  0.72938938  0.52876366  0.64072424     0.13900
N3657       N  0.89022401  0.84145136  0.61398332    -0.02400
C3658       C  0.86071182  0.82892053  0.60471409     0.00200
C3659       C  0.83773131  0.79690891  0.61090339    -0.22700
C3660       C  0.85395268  0.78923353  0.62425925    -0.22900
C3661       C  0.88640018  0.81663026  0.62553231     0.00100
H3662       H  0.81274257  0.78007167  0.60546791     0.13900
H3663       H  0.84349344  0.76586575  0.63188060     0.13900
N3664       N  0.91171445  0.71371152  0.69681868    -0.26200
N3665       N  0.89296356  0.72843103  0.69553798    -0.34100
C3666       C  0.91341013  0.76231504  0.69357423     0.02100
C3667       C  0.94643495  0.76892592  0.69406783     0.08200
C3668       C  0.94448950  0.73772932  0.69608522    -0.04900
H3669       H  0.90484345  0.78052035  0.69190163     0.08800
H3670       H  0.96515936  0.73257966  0.69615616     0.10000
Cu3671     Cu  0.84037887  0.70119142  0.69678026     0.44200
Cu3672     Cu  0.89255806  0.66134777  0.69782490     0.42000
Cu3673     Cu  0.80162162  0.60949084  0.70027002     0.43900
N3674       N  0.78854747  0.66840167  0.69938794    -0.33600
N3675       N  0.77416857  0.63491098  0.70063085    -0.27800
C3676       C  0.74030573  0.62131951  0.70081364    -0.03900
C3677       C  0.73316994  0.64765994  0.70019938     0.08300
C3678       C  0.76430033  0.67697399  0.69882092     0.02100
H3679       H  0.72234998  0.59433609  0.70042924     0.09700
H3680       H  0.76886933  0.70243164  0.69627978     0.08800
N3681       N  0.83402967  0.58968750  0.69854248    -0.35000
N3682       N  0.86726294  0.60839504  0.69728474    -0.27200
C3683       C  0.88026833  0.58766647  0.69501822    -0.02500
C3684       C  0.85380698  0.55440039  0.69517535     0.06200
C3685       C  0.82498087  0.55663934  0.69730705     0.04200
H3686       H  0.90676356  0.59626975  0.69315379     0.09400
H3687       H  0.79920435  0.53603436  0.69690136     0.08200
N3688       N  0.70141321  0.64533203  0.69544578    -0.02400
C3689       C  0.68977232  0.66542957  0.70211596     0.00200
C3690       C  0.66945271  0.66900834  0.68932681    -0.22700
C3691       C  0.66659821  0.64862413  0.67497666    -0.22900
C3692       C  0.68602202  0.63407736  0.67926270     0.00100
H3693       H  0.65670336  0.68355290  0.69056380     0.13900
H3694       H  0.65112261  0.64397379  0.66304174     0.13900
N3695       N  0.85457683  0.52362677  0.69136907    -0.02400
C3696       C  0.83639421  0.49356812  0.69995353     0.00200
C3697       C  0.84121866  0.46898527  0.69166468    -0.22700
C3698       C  0.86391721  0.48482105  0.67805601    -0.22900
C3699       C  0.87194153  0.51845307  0.67833373     0.00100
H3700       H  0.83312872  0.44363530  0.69664140     0.13900
H3701       H  0.87546737  0.47373574  0.66992214     0.13900
N3702       N  0.97691061  0.80082629  0.69126158    -0.02400
C3703       C  0.00533675  0.81342604  0.70151447     0.00200
C3704       C  0.03066679  0.84266290  0.69369708    -0.22700
C3705       C  0.01720743  0.84809498  0.67821666    -0.22900
C3706       C  0.98394333  0.82237630  0.67729755     0.00100
H3707       H  0.05502968  0.86020577  0.69958947     0.13900
H3708       H  0.02957999  0.86973544  0.66934231     0.13900
N3709       N  0.58993963  0.57912166  0.36982224    -0.26200
N3710       N  0.56808407  0.59029189  0.36989062    -0.34100
C3711       C  0.58504977  0.62436245  0.36737925     0.02100
C3712       C  0.61910950  0.63482249  0.36621221     0.08200
C3713       C  0.62107596  0.60547712  0.36727668    -0.04900
H3714       H  0.57335257  0.63996066  0.36616383     0.08800
H3715       H  0.64343475  0.60326250  0.36577019     0.10000
Cu3716     Cu  0.01608312  0.55791698  0.37277490     0.44200
Cu3717     Cu  0.57853636  0.52891591  0.37271013     0.42000
Cu3718     Cu  0.98277383  0.96746180  0.37219770     0.43900
N3719       N  0.96602296  0.51851539  0.37479896    -0.33600
N3720       N  0.95100404  0.98789625  0.36953962    -0.27800
C3721       C  0.91706378  0.97047605  0.36978812    -0.03900
C3722       C  0.90572149  0.99358051  0.36903617     0.08300
C3723       C  0.93759827  0.52074919  0.37445711     0.02100
H3724       H  0.90189343  0.94314930  0.37114108     0.09700
H3725       H  0.93691047  0.54418641  0.37325177     0.08800
N3726       N  0.01739056  0.95068013  0.37564186    -0.35000
N3727       N  0.55064485  0.97205342  0.37653235    -0.27200
C3728       C  0.56612411  0.95328115  0.37742502    -0.02500
C3729       C  0.54143861  0.91920359  0.37817070     0.06200
C3730       C  0.01073735  0.91828503  0.37626379     0.04200
H3731       H  0.59308932  0.96347589  0.37645902     0.09400
H3732       H  0.98586233  0.89639119  0.37433159     0.08200
N3733       N  0.54540876  0.89024587  0.37438619    -0.02400
C3734       C  0.52852284  0.85928374  0.38245013     0.00200
C3735       C  0.52779893  0.83458326  0.37124795    -0.22700
C3736       C  0.54626323  0.85099980  0.35634409    -0.22900
C3737       C  0.55731236  0.88513271  0.35878894     0.00100
H3738       H  0.51629609  0.80764505  0.37393384     0.13900
H3739       H  0.55148361  0.83938573  0.34506939     0.13900
N3740       N  0.64659687  0.66767687  0.36129932    -0.02400
C3741       C  0.67810408  0.68177910  0.36866975     0.00200
C3742       C  0.70185746  0.70104342  0.35588752    -0.22700
C3743       C  0.68429850  0.70068961  0.34065773    -0.22900
C3744       C  0.65054087  0.68054573  0.34452328     0.00100
H3745       H  0.72894461  0.71545574  0.35767816     0.13900
H3746       H  0.69491372  0.71463141  0.32839075     0.13900
N3747       N  0.87101221  0.98551165  0.36990202    -0.02400
C3748       C  0.85720593  0.99989787  0.38034674     0.00200
C3749       C  0.82225658  0.98183688  0.37861760    -0.22700
C3750       C  0.81418583  0.95589148  0.36678717    -0.22900
C3751       C  0.84430065  0.95870037  0.36164981     0.00100
H3752       H  0.80442438  0.98691639  0.38544557     0.13900
H3753       H  0.78908120  0.93706614  0.36229805     0.13900
N3754       N  0.60438661  0.78456690  0.28706817    -0.26200
N3755       N  0.62588397  0.77302582  0.28704625    -0.34100
C3756       C  0.60871576  0.73886286  0.28649866     0.02100
C3757       C  0.57467907  0.72830201  0.28606671     0.08200
C3758       C  0.57259168  0.75779686  0.28639764    -0.04900
H3759       H  0.62026568  0.72304842  0.28623095     0.08800
H3760       H  0.54987357  0.75964418  0.28631506     0.10000
Cu3761     Cu  0.67776146  0.80391308  0.28746902     0.44200
Cu3762     Cu  0.62114561  0.83666016  0.28825652     0.42000
Cu3763     Cu  0.71512064  0.89412180  0.28736551     0.43900
N3764       N  0.72941426  0.83621742  0.28792544    -0.33600
N3765       N  0.74412904  0.86981224  0.28830499    -0.27800
C3766       C  0.77797493  0.88285625  0.28966966    -0.03900
C3767       C  0.78422736  0.85582960  0.28979098     0.08300
C3768       C  0.75301844  0.82683688  0.28878393     0.02100
H3769       H  0.79632616  0.90967964  0.29061652     0.09700
H3770       H  0.74774098  0.80078599  0.28932231     0.08800
N3771       N  0.67904209  0.91013243  0.28756721    -0.35000
N3772       N  0.64585575  0.88982099  0.28877000    -0.27200
C3773       C  0.63088437  0.90899187  0.28990134    -0.02500
C3774       C  0.65574111  0.94274184  0.28894323     0.06200
C3775       C  0.68585445  0.94268776  0.28746579     0.04200
H3776       H  0.60401124  0.89906610  0.29118174     0.09400
H3777       H  0.71093162  0.96468224  0.28691539     0.08200
N3778       N  0.65199332  0.97238601  0.29024156    -0.02400
C3779       C  0.66595543  0.99937302  0.27898083     0.00200
C3780       C  0.66201665  0.02552469  0.28575622    -0.22700
C3781       C  0.64435591  0.01386066  0.30150709    -0.22900
C3782       C  0.63747625  0.98068305  0.30366643     0.00100
H3783       H  0.71356870  0.56037340  0.29647580     0.13900
H3784       H  0.63690913  0.02798584  0.31018811     0.13900
N3785       N  0.81566606  0.85623441  0.29264240    -0.02400
C3786       C  0.82771268  0.84077161  0.28189154     0.00200
C3787       C  0.85179336  0.83630315  0.29093634    -0.22700
C3788       C  0.85500931  0.84992905  0.30779556    -0.22900
C3789       C  0.83229775  0.86162602  0.30855862     0.00100
H3790       H  0.86752633  0.82709816  0.28533585     0.13900
H3791       H  0.87385890  0.85350266  0.31782247     0.13900
N3792       N  0.54732893  0.69355587  0.28567469    -0.02400
C3793       C  0.51861286  0.67973279  0.27539411     0.00200
C3794       C  0.49960996  0.64512640  0.27898607    -0.22700
C3795       C  0.51653386  0.63766961  0.29188137    -0.22900
C3796       C  0.54608561  0.66748432  0.29537675     0.00100
H3797       H  0.47679025  0.62653475  0.27219286     0.13900
H3798       H  0.50850458  0.61292737  0.29768017     0.13900
N3799       N  0.83875222  0.62607617  0.44976703    -0.26200
N3800       N  0.80666730  0.61794490  0.44847261    -0.34100
C3801       C  0.78712626  0.58397645  0.44729412     0.02100
C3802       C  0.80794396  0.57004378  0.44763145     0.08200
C3803       C  0.84059951  0.59725707  0.44918755    -0.04900
H3804       H  0.75988156  0.57057106  0.44607597     0.08800
H3805       H  0.86370886  0.59619477  0.45011559     0.10000
Cu3806     Cu  0.79028317  0.65301189  0.44828887     0.44200
Cu3807     Cu  0.87736481  0.67651851  0.45277812     0.42000
Cu3808     Cu  0.84827107  0.74077439  0.45350138     0.43900
N3809       N  0.77529655  0.68906093  0.44987094    -0.33600
N3810       N  0.79618012  0.72190148  0.45253538    -0.27800
C3811       C  0.77783627  0.73766140  0.45456082    -0.03900
C3812       C  0.74395359  0.71318213  0.45271442     0.08300
C3813       C  0.74339784  0.68288087  0.44981157     0.02100
H3814       H  0.78831277  0.76452586  0.45725689     0.09700
H3815       H  0.72142760  0.65786224  0.44866637     0.08800
N3816       N  0.89846217  0.75163928  0.45478616    -0.35000
N3817       N  0.90895766  0.72910928  0.45532191    -0.27200
C3818       C  0.94267850  0.74570218  0.45825595    -0.02500
C3819       C  0.95382804  0.78020276  0.45905887     0.06200
C3820       C  0.92522645  0.78298649  0.45698680     0.04200
H3821       H  0.95762851  0.73345741  0.46017875     0.09400
H3822       H  0.92347540  0.80574892  0.45842390     0.08200
N3823       N  0.98603362  0.80703494  0.46539355    -0.02400
C3824       C  0.00319573  0.83863611  0.45826587     0.00200
C3825       C  0.52765777  0.85951345  0.47078294    -0.22700
C3826       C  0.52651952  0.83977413  0.48515151    -0.22900
C3827       C  0.00120151  0.80784636  0.48124356     0.00100
H3828       H  0.54770551  0.88520736  0.46819846     0.13900
H3829       H  0.54492852  0.84750465  0.49598376     0.13900
N3830       N  0.71431993  0.71632366  0.45497384    -0.02400
C3831       C  0.68499224  0.69773643  0.44573766     0.00200
C3832       C  0.65977854  0.70183625  0.45337815    -0.22700
C3833       C  0.67435414  0.72413566  0.46755136    -0.22900
C3834       C  0.70810934  0.73339975  0.46786260     0.00100
H3835       H  0.63468165  0.69298976  0.44791921     0.13900
H3836       H  0.66229130  0.73459522  0.47575242     0.13900
N3837       N  0.79721307  0.53436960  0.44693122    -0.02400
C3838       C  0.81089592  0.51880166  0.43736239     0.00200
C3839       C  0.79959515  0.99294839  0.43707482    -0.22700
C3840       C  0.77327918  0.98533052  0.44829968    -0.22900
C3841       C  0.76928955  0.50876831  0.45479646     0.00100
H3842       H  0.80538086  0.97480327  0.43099969     0.13900
H3843       H  0.75478444  0.96026090  0.45292650     0.13900
N3844       N  0.59791906  0.79785413  0.53568707    -0.26200
N3845       N  0.61425109  0.78152531  0.54003748    -0.34100
C3846       C  0.59170972  0.74824334  0.54195153     0.02100
C3847       C  0.55969125  0.74324673  0.53849858     0.08200
C3848       C  0.56458461  0.77527850  0.53447721    -0.04900
H3849       H  0.59851473  0.72886720  0.54412954     0.08800
H3850       H  0.54576726  0.78173133  0.53025728     0.10000
Cu3851     Cu  0.66680844  0.80376695  0.54033660     0.44200
Cu3852     Cu  0.62195406  0.84968847  0.52999222     0.42000
Cu3853     Cu  0.71270797  0.89430827  0.53115739     0.43900
N3854       N  0.71930641  0.83197515  0.53805310    -0.33600
N3855       N  0.73556867  0.86514883  0.53508872    -0.27800
C3856       C  0.76851530  0.87596275  0.53301007    -0.03900
C3857       C  0.77362193  0.84857213  0.53508089     0.08300
C3858       C  0.74173222  0.82077816  0.53776624     0.02100
H3859       H  0.78689882  0.90132383  0.52874660     0.09700
H3860       H  0.73497651  0.79430797  0.53841311     0.08800
N3861       N  0.68510257  0.91842208  0.52612400    -0.35000
N3862       N  0.65167605  0.90178852  0.52554402    -0.27200
C3863       C  0.64096917  0.92404937  0.52223260    -0.02500
C3864       C  0.66902602  0.95606058  0.52085333     0.06200
C3865       C  0.69669917  0.95183052  0.52322115     0.04200
H3866       H  0.61476815  0.91749066  0.52112326     0.09400
H3867       H  0.72304331  0.97135487  0.52316592     0.08200
N3868       N  0.66853632  0.98711484  0.51793210    -0.02400
C3869       C  0.65314144  0.99907581  0.52871541     0.00200
C3870       C  0.64697795  0.52101012  0.52365113    -0.22700
C3871       C  0.65994148  0.52370433  0.50670708    -0.22900
C3872       C  0.67295285  0.00268669  0.50187766     0.00100
H3873       H  0.63800589  0.53707508  0.52917421     0.13900
H3874       H  0.66311581  0.54237902  0.49668828     0.13900
N3875       N  0.80334730  0.84828723  0.52920226    -0.02400
C3876       C  0.83475620  0.86970344  0.53580103     0.00200
C3877       C  0.85794475  0.87908054  0.52200746    -0.22700
C3878       C  0.84053041  0.86129152  0.50693099    -0.22900
C3879       C  0.80728759  0.84230317  0.51190077     0.00100
H3880       H  0.88517265  0.89267682  0.52351150     0.13900
H3881       H  0.85132156  0.85982031  0.49433788     0.13900
N3882       N  0.53011341  0.71068492  0.53478738    -0.02400
C3883       C  0.52091313  0.68149271  0.54392151     0.00200
C3884       C  0.49497965  0.65432472  0.53473799    -0.22700
C3885       C  0.48771315  0.66736597  0.51969161    -0.22900
C3886       C  0.50952796  0.70203598  0.52012544     0.00100
H3887       H  0.97927609  0.62805469  0.53899602     0.13900
H3888       H  0.96599388  0.65340774  0.50988068     0.13900
C3889       C  0.73240353  0.02303815  0.49441766    -0.04700
C3890       C  0.69851678  0.00623493  0.48872151     0.01200
C3891       C  0.68693362  0.49309084  0.47430691    -0.07300
C3892       C  0.71220046  0.49774225  0.46209728    -0.04700
C3893       C  0.74620203  0.51188576  0.46747578     0.01200
C3894       C  0.75862658  0.02829176  0.48280806    -0.07200
C3895       C  0.79453714  0.04411623  0.49012540     0.63100
H3896       H  0.73811360  0.03178182  0.50820538     0.13800
H3897       H  0.70545484  0.48924306  0.44830833     0.13800
C3898       C  0.65024325  0.47600400  0.46824599     0.63400
F3899       F  0.79600265  0.04927804  0.50850885    -0.21800
F3900       F  0.81217798  0.56711131  0.48543565    -0.19100
F3901       F  0.80763403  0.02302909  0.48666789    -0.18800
F3902       F  0.63785990  0.49805313  0.47030728    -0.18900
F3903       F  0.63591127  0.94665590  0.47580586    -0.19200
F3904       F  0.64632046  0.46635081  0.45036876    -0.21900
C3905       C  0.74808898  0.75393093  0.49350875    -0.04700
C3906       C  0.73396756  0.76173010  0.47875731     0.01200
C3907       C  0.74418560  0.79615780  0.47476621    -0.07300
C3908       C  0.76764428  0.82178564  0.48624001    -0.04700
C3909       C  0.78136357  0.81394161  0.50111652     0.01200
C3910       C  0.77223462  0.77968757  0.50471173    -0.07200
C3911       C  0.78896448  0.77054930  0.51980282     0.63100
H3912       H  0.74018998  0.72747159  0.49606047     0.13800
H3913       H  0.77586083  0.84828935  0.48359549     0.13800
C3914       C  0.73156988  0.80597181  0.45808604     0.63400
F3915       F  0.77744560  0.73593569  0.52034628    -0.21800
F3916       F  0.78234086  0.78003908  0.53619171    -0.19100
F3917       F  0.82349265  0.78718030  0.51730185    -0.18800
F3918       F  0.73935590  0.79360477  0.44304012    -0.18900
F3919       F  0.74637314  0.84092630  0.45631864    -0.19200
F3920       F  0.69704223  0.79268404  0.45878870    -0.21900
C3921       C  0.51903346  0.76459196  0.48364574    -0.04700
C3922       C  0.99895871  0.77768635  0.49015960     0.01200
C3923       C  0.97946297  0.76326565  0.50564647    -0.07300
C3924       C  0.48313758  0.73744063  0.51513753    -0.04700
C3925       C  0.50488813  0.72629403  0.50889433     0.01200
C3926       C  0.52208468  0.73887418  0.49258716    -0.07200
C3927       C  0.54326483  0.72493372  0.48477468     0.63100
H3928       H  0.53298892  0.77566541  0.47146173     0.13800
H3929       H  0.46968593  0.72680740  0.52750320     0.13800
C3930       C  0.95631966  0.77552212  0.51262420     0.63400
F3931       F  0.55820406  0.74083474  0.46884495    -0.21800
F3932       F  0.52292435  0.69051478  0.48134786    -0.19100
F3933       F  0.56852612  0.72961368  0.49681627    -0.18800
F3934       F  0.93341673  0.77208835  0.49933374    -0.18900
F3935       F  0.97517938  0.80939143  0.51757601    -0.19200
F3936       F  0.93834192  0.75704861  0.52739727    -0.21900
C3937       C  0.83199552  0.90126016  0.35329913    -0.04700
C3938       C  0.84539167  0.93541791  0.34827579     0.01200
C3939       C  0.85261142  0.94483451  0.33005176    -0.07300
C3940       C  0.84754384  0.91966164  0.31748705    -0.04700
C3941       C  0.83424911  0.88556577  0.32249707     0.01200
C3942       C  0.82599825  0.87589624  0.34061431    -0.07200
C3943       C  0.80960554  0.83890081  0.34632657     0.63100
H3944       H  0.82533911  0.89452672  0.36722260     0.13800
H3945       H  0.85404794  0.92642701  0.30356620     0.13800
C3946       C  0.86450315  0.98094532  0.32379148     0.63400
F3947       F  0.80041209  0.83475919  0.36420746    -0.21800
F3948       F  0.83174970  0.82682855  0.34402246    -0.19100
F3949       F  0.78080229  0.81957768  0.33605025    -0.18800
F3950       F  0.89590701  0.00275352  0.33115132    -0.18900
F3951       F  0.84190760  0.99109219  0.32903986    -0.19200
F3952       F  0.86708159  0.98367496  0.30528006    -0.21900
C3953       C  0.87013757  0.03416400  0.42507091    -0.04700
C3954       C  0.84094020  0.53409203  0.42558672     0.01200
C3955       C  0.83941383  0.54514230  0.40791710    -0.07300
C3956       C  0.85806588  0.54035660  0.39442449    -0.04700
C3957       C  0.87389014  0.02939902  0.39286944     0.01200
C3958       C  0.88272578  0.02440761  0.41045126    -0.07200
C3959       C  0.90247951  0.00616846  0.41386265     0.63100
H3960       H  0.87365506  0.02742732  0.43857935     0.13800
H3961       H  0.85523441  0.54621211  0.38061610     0.13800
C3962       C  0.81532741  0.55782282  0.40266796     0.63400
F3963       F  0.90752779  0.00348900  0.43202646    -0.21800
F3964       F  0.93385425  0.02423993  0.40611388    -0.19100
F3965       F  0.88538932  0.97363783  0.40676645    -0.18800
F3966       F  0.82505356  0.58846938  0.41106297    -0.18900
F3967       F  0.78267921  0.53434895  0.40746540    -0.19200
F3968       F  0.81518979  0.56305556  0.38434245    -0.21900
C3969       C  0.61572420  0.65625780  0.31714250    -0.04700
C3970       C  0.62282150  0.67650757  0.33250370     0.01200
C3971       C  0.60539705  0.69460888  0.33542989    -0.07300
C3972       C  0.57990693  0.69030831  0.32319098    -0.04700
C3973       C  0.57260526  0.66986866  0.30788401     0.01200
C3974       C  0.59103216  0.65287877  0.30455319    -0.07200
C3975       C  0.58553472  0.63221288  0.28754790     0.63100
H3976       H  0.62997274  0.64334056  0.31503007     0.13800
H3977       H  0.56602541  0.70364094  0.32517474     0.13800
C3978       C  0.61543102  0.72035565  0.35055684     0.63400
F3979       F  0.61014447  0.62316005  0.28557679    -0.21800
F3980       F  0.58656230  0.65102444  0.27265886    -0.19100
F3981       F  0.55458068  0.60267005  0.28807324    -0.18800
F3982       F  0.64804625  0.74641130  0.34781682    -0.18900
F3983       F  0.61374947  0.70525831  0.36694660    -0.19200
F3984       F  0.59464721  0.73444845  0.35122542    -0.21900
C3985       C  0.67322676  0.65732540  0.39939170    -0.04700
C3986       C  0.68451662  0.68631217  0.38845447     0.01200
C3987       C  0.69775092  0.71881522  0.39681826    -0.07300
C3988       C  0.69766826  0.72048030  0.41556900    -0.04700
C3989       C  0.68470487  0.69145487  0.42630297     0.01200
C3990       C  0.67223809  0.65914108  0.41823537    -0.07200
C3991       C  0.65744984  0.62601498  0.42860333     0.63100
H3992       H  0.66449775  0.63276860  0.39326446     0.13800
H3993       H  0.70732634  0.74484769  0.42216914     0.13800
C3994       C  0.71176446  0.75203745  0.38643570     0.63400
F3995       F  0.62520142  0.60404171  0.42217195    -0.21800
F3996       F  0.65542648  0.63023222  0.44683632    -0.19100
F3997       F  0.67724818  0.61121285  0.42605171    -0.18800
F3998       F  0.68907565  0.74961763  0.37334709    -0.18900
F3999       F  0.74202374  0.75955769  0.37869892    -0.19200
F4000       F  0.71795423  0.77923685  0.39740110    -0.21900
C4001       C  0.56363372  0.92452563  0.33420603    -0.04700
C4002       C  0.57888438  0.91175391  0.34581090     0.01200
C4003       C  0.61367746  0.92266232  0.34410015    -0.07300
C4004       C  0.63189185  0.94524546  0.33018140    -0.04700
C4005       C  0.61656635  0.95761603  0.31828136     0.01200
C4006       C  0.58190036  0.94762964  0.32047787    -0.07200
C4007       C  0.56370978  0.96035370  0.30824188     0.63100
H4008       H  0.53705020  0.91587230  0.33592905     0.13800
H4009       H  0.65842000  0.95360632  0.32849817     0.13800
C4010       C  0.63164520  0.91120531  0.35724182     0.63400
F4011       F  0.52927389  0.94355736  0.31126771    -0.21800
F4012       F  0.56837488  0.95513018  0.29050937    -0.19100
F4013       F  0.57591137  0.99460851  0.31121013    -0.18800
F4014       F  0.61779367  0.87630064  0.35635400    -0.18900
F4015       F  0.62836663  0.92041199  0.37447056    -0.19200
F4016       F  0.66576069  0.92597836  0.35364437    -0.21900
C4017       C  0.99712026  0.85997408  0.40911921    -0.04700
C4018       C  0.52149783  0.85386094  0.40206634     0.01200
C4019       C  0.53912289  0.84238165  0.41339659    -0.07300
C4020       C  0.53105364  0.83714432  0.43165104    -0.04700
C4021       C  0.00755753  0.84405058  0.43866997     0.01200
C4022       C  0.99092055  0.85687901  0.42773349    -0.07200
C4023       C  0.96702080  0.86809165  0.43483947     0.63100
H4024       H  0.98322759  0.86818056  0.40063238     0.13800
H4025       H  0.54345967  0.82737511  0.44034623     0.13800
C4026       C  0.56655752  0.83557474  0.40664139     0.63400
F4027       F  0.97793432  0.90118300  0.42946922    -0.21800
F4028       F  0.96517315  0.86724128  0.45335645    -0.19100
F4029       F  0.93502775  0.84719912  0.42778494    -0.18800
F4030       F  0.58846830  0.86163166  0.39559930    -0.18900
F4031       F  0.55209009  0.80508473  0.39735785    -0.19200
F4032       F  0.58558275  0.83332998  0.42065098    -0.21900
C4033       C  0.92095044  0.84027728  0.65300848    -0.04700
C4034       C  0.91233907  0.81838160  0.63822470     0.01200
C4035       C  0.92760371  0.79795993  0.63612817    -0.07300
C4036       C  0.95047928  0.79948997  0.64940485    -0.04700
C4037       C  0.95896241  0.82130980  0.66419316     0.01200
C4038       C  0.94440260  0.84236196  0.66605214    -0.07200
C4039       C  0.95353971  0.86679563  0.68176882     0.63100
H4040       H  0.90906313  0.85572621  0.65422391     0.13800
H4041       H  0.96238431  0.78405012  0.64823723     0.13800
C4042       C  0.92101382  0.77589249  0.61959086     0.63400
F4043       F  0.98728122  0.89137735  0.68099450    -0.21800
F4044       F  0.94759481  0.84925916  0.69775535    -0.19100
F4045       F  0.93475028  0.88312294  0.68164072    -0.18800
F4046       F  0.94012198  0.75989801  0.61978075    -0.18900
F4047       F  0.92935395  0.79593837  0.60442839    -0.19200
F4048       F  0.88738989  0.75101829  0.61856159    -0.21900
C4049       C  0.84285005  0.86349394  0.58656659    -0.04700
C4050       C  0.85679613  0.84205999  0.58722873     0.01200
C4051       C  0.86582384  0.83227242  0.57115018    -0.07300
C4052       C  0.85863724  0.84268757  0.55481329    -0.04700
C4053       C  0.84460258  0.86408416  0.55397562     0.01200
C4054       C  0.83811405  0.87611902  0.57013527    -0.07200
C4055       C  0.82763889  0.90293465  0.57089654     0.63100
H4056       H  0.83646218  0.87116363  0.59902254     0.13800
H4057       H  0.86364591  0.83374468  0.54239060     0.13800
C4058       C  0.88318263  0.81109340  0.57117606     0.63400
F4059       F  0.84892235  0.92853178  0.58263745    -0.21800
F4060       F  0.79493644  0.88847273  0.57707559    -0.19100
F4061       F  0.82959014  0.91780399  0.55442462    -0.18800
F4062       F  0.86316842  0.78018574  0.57945046    -0.18900
F4063       F  0.91368846  0.82860972  0.58024755    -0.19200
F4064       F  0.88971650  0.80456361  0.55396769    -0.21900
C4065       C  0.68511648  0.52416223  0.58056799    -0.04700
C4066       C  0.66386563  0.49488454  0.59028722     0.01200
C4067       C  0.64345933  0.96565230  0.57639693    -0.07300
C4068       C  0.63796247  0.96823686  0.55793764    -0.04700
C4069       C  0.65597408  0.99911693  0.54862952     0.01200
C4070       C  0.68198537  0.52602705  0.56195616    -0.07200
C4071       C  0.70715565  0.55840472  0.55236458     0.63100
H4072       H  0.70455048  0.54589829  0.58784138     0.13800
H4073       H  0.62012576  0.94560147  0.55064389     0.13800
C4074       C  0.62559137  0.93044454  0.58465801     0.63400
F4075       F  0.73345034  0.58022576  0.56361317    -0.21800
F4076       F  0.69119310  0.57563727  0.54623026    -0.19100
F4077       F  0.72112365  0.55059870  0.53808009    -0.18800
F4078       F  0.59104511  0.91712008  0.58320911    -0.18900
F4079       F  0.63390084  0.93026383  0.60254802    -0.19200
F4080       F  0.63426005  0.90954295  0.57538164    -0.21900
C4081       C  0.66451651  0.54767412  0.66048298    -0.04700
C4082       C  0.68582943  0.55727477  0.64569071     0.01200
C4083       C  0.70821691  0.59222200  0.64220356    -0.07300
C4084       C  0.70828474  0.61670308  0.65379411    -0.04700
C4085       C  0.68662100  0.60709868  0.66845691     0.01200
C4086       C  0.66437340  0.57214822  0.67196067    -0.07200
C4087       C  0.63956379  0.56085629  0.68727246     0.63100
H4088       H  0.64740808  0.52081113  0.66268671     0.13800
H4089       H  0.72481244  0.64359144  0.65134771     0.13800
C4090       C  0.73107365  0.60356684  0.62599064     0.63400
F4091       F  0.62125598  0.52576804  0.68878792    -0.21800
F4092       F  0.61704872  0.57237255  0.68424797    -0.19100
F4093       F  0.65661937  0.57393623  0.70334401    -0.18800
F4094       F  0.71174455  0.59130364  0.61049141    -0.18900
F4095       F  0.75333798  0.59131737  0.62714240    -0.19200
F4096       F  0.74985460  0.63867002  0.62474961    -0.21900
C4097       C  0.92434017  0.58838625  0.64524672    -0.04700
C4098       C  0.95710825  0.59881800  0.65167066     0.01200
C4099       C  0.96179046  0.58233707  0.66667954    -0.07300
C4100       C  0.93307232  0.55570623  0.67473205    -0.04700
C4101       C  0.90028969  0.54553924  0.66838319     0.01200
C4102       C  0.89566615  0.56181960  0.65329505    -0.07200
C4103       C  0.86147827  0.55263226  0.64518908     0.63100
H4104       H  0.92109327  0.60138611  0.63380193     0.13800
H4105       H  0.93623381  0.54302316  0.68635548     0.13800
C4106       C  0.99597108  0.59170458  0.67486428     0.63400
F4107       F  0.85616993  0.57992775  0.64718997    -0.21800
F4108       F  0.83484494  0.52442079  0.65292894    -0.19100
F4109       F  0.86129085  0.54588732  0.62706651    -0.18800
F4110       F  0.99723088  0.60201466  0.69246492    -0.18900
F4111       F  0.02280688  0.61753220  0.66584640    -0.19200
F4112       F  0.00000037  0.56341060  0.67473509    -0.21900
C4113       C  0.54127093  0.66481607  0.59143812    -0.04700
C4114       C  0.51800471  0.66979618  0.60123405     0.01200
C4115       C  0.99756982  0.68079662  0.59180646    -0.07300
C4116       C  0.00127758  0.68636508  0.57321950    -0.04700
C4117       C  0.52402508  0.68036836  0.56366414     0.01200
C4118       C  0.54417518  0.66917279  0.57268341    -0.07200
C4119       C  0.56872971  0.66110126  0.56341120     0.63100
H4120       H  0.55702899  0.65683143  0.59841053     0.13800
H4121       H  0.98602014  0.69487899  0.56607912     0.13800
C4122       C  0.97144720  0.68640912  0.60139924     0.63400
F4123       F  0.55985340  0.62768235  0.56687117    -0.21800
F4124       F  0.60090061  0.68221880  0.57021254    -0.19100
F4125       F  0.56936940  0.66528904  0.54501051    -0.18800
F4126       F  0.98750593  0.71511322  0.61211829    -0.18900
F4127       F  0.95089331  0.65848816  0.61180932    -0.19200
F4128       F  0.95077635  0.69122020  0.58941527    -0.21900
C4129       C  0.97741473  0.74357331  0.99983996    -0.04700
C4130       C  0.48807059  0.77725918  0.99548522     0.01200
C4131       C  0.49937786  0.78939130  0.97798739    -0.07300
C4132       C  0.50070557  0.76705570  0.96542079    -0.04700
C4133       C  0.98914819  0.73196134  0.96987535     0.01200
C4134       C  0.97766888  0.72045290  0.98743036    -0.07200
C4135       C  0.96591111  0.68402146  0.99296351     0.63100
H4136       H  0.96825489  0.73536873  0.01331959     0.13800
H4137       H  0.51011101  0.77585020  0.95203968     0.13800
C4138       C  0.50962808  0.82559506  0.97268389     0.63400
F4139       F  0.95685893  0.67847529  0.01085475    -0.21800
F4140       F  0.99148552  0.67657545  0.99043997    -0.19100
F4141       F  0.93811850  0.66205624  0.98268725    -0.18800
F4142       F  0.53522923  0.84825796  0.98397075    -0.18900
F4143       F  0.48220593  0.83055024  0.97401281    -0.19200
F4144       F  0.52104130  0.83261491  0.95519798    -0.21900
C4145       C  0.71419610  0.74445689  0.99564101    -0.04700
C4146       C  0.73025163  0.74273248  0.01141793     0.01200
C4147       C  0.76597738  0.76138130  0.01291191    -0.07300
C4148       C  0.78465163  0.78021440  0.99805542    -0.04700
C4149       C  0.76862903  0.78147257  0.98218676     0.01200
C4150       C  0.73289648  0.76400230  0.98094146    -0.07200
C4151       C  0.71471314  0.76566043  0.96408308     0.63100
H4152       H  0.68687649  0.72990725  0.99486561     0.13800
H4153       H  0.81198114  0.79467898  0.99879213     0.13800
C4154       C  0.78422174  0.76240895  0.03031472     0.63400
F4155       F  0.68004804  0.74498604  0.96528656    -0.21800
F4156       F  0.72548142  0.75519706  0.94939188    -0.19100
F4157       F  0.72144918  0.79862154  0.96134851    -0.18800
F4158       F  0.78040031  0.73078665  0.03393550    -0.18900
F4159       F  0.77112584  0.77202990  0.04431764    -0.19200
F4160       F  0.81848679  0.78547408  0.02948791    -0.21900
C4161       C  0.71262157  0.53265405  0.99832709    -0.04700
C4162       C  0.70883786  0.51211433  0.98350300     0.01200
C4163       C  0.72553085  0.49286963  0.98316561    -0.07300
C4164       C  0.73717312  0.99374593  0.99263555    -0.04700
C4165       C  0.74776528  0.01503004  0.00775131     0.01200
C4166       C  0.73319810  0.03559626  0.01144540    -0.07200
C4167       C  0.74054600  0.05541777  0.02891953     0.63100
H4168       H  0.69866947  0.54620907  0.99840736     0.13800
H4169       H  0.74797188  0.97754615  0.99040390     0.13800
C4170       C  0.71892674  0.46721960  0.96832602     0.63400
F4171       F  0.76697072  0.58356236  0.03150596    -0.21800
F4172       F  0.72703285  0.53556804  0.04456855    -0.19100
F4173       F  0.72031900  0.06996555  0.03075971    -0.18800
F4174       F  0.72661830  0.48292547  0.95178811    -0.18900
F4175       F  0.66479303  0.94779171  0.96665983    -0.19200
F4176       F  0.71283290  0.94597563  0.96579529    -0.21900
C4177       C  0.84674960  0.86047350  0.23264912    -0.04700
C4178       C  0.81913962  0.83243570  0.22443448     0.01200
C4179       C  0.79259441  0.80821406  0.23519983    -0.07300
C4180       C  0.79644650  0.81121032  0.25402038    -0.04700
C4181       C  0.82431850  0.83910754  0.26212967     0.01200
C4182       C  0.84929266  0.86490878  0.25131993    -0.07200
C4183       C  0.87814789  0.89736430  0.25939148     0.63100
H4184       H  0.86633827  0.87926139  0.22417946     0.13800
H4185       H  0.77712830  0.79202165  0.26245390     0.13800
C4186       C  0.75951419  0.77977101  0.22776047     0.63400
F4187       F  0.89747337  0.92040608  0.24629284    -0.21800
F4188       F  0.89918698  0.89000176  0.26955645    -0.19100
F4189       F  0.86527817  0.91292363  0.27014707    -0.18800
F4190       F  0.75735054  0.74882817  0.23143467    -0.18900
F4191       F  0.75589782  0.78234817  0.20946833    -0.19200
F4192       F  0.73298284  0.78068226  0.23600770    -0.21900
C4193       C  0.97170138  0.68128206  0.23459625    -0.04700
C4194       C  0.99867601  0.69822215  0.22271617     0.01200
C4195       C  0.53148977  0.72090266  0.22990175    -0.07300
C4196       C  0.53773163  0.71666090  0.24797030    -0.04700
C4197       C  0.51127793  0.69524250  0.25941957     0.01200
C4198       C  0.97725135  0.68135941  0.25316628    -0.07200
C4199       C  0.94642442  0.66568839  0.26505029     0.63100
H4200       H  0.94621632  0.66569637  0.22956094     0.13800
H4201       H  0.56370430  0.72847435  0.25246073     0.13800
C4202       C  0.56038620  0.74770966  0.21902815     0.63400
F4203       F  0.92702203  0.68062724  0.26126967    -0.21800
F4204       F  0.95486572  0.67070210  0.28312419    -0.19100
F4205       F  0.92720608  0.63115919  0.26155618    -0.18800
F4206       F  0.54996428  0.75143190  0.20205931    -0.18900
F4207       F  0.58548895  0.73930468  0.21744586    -0.19200
F4208       F  0.57368082  0.77873192  0.22777494    -0.21900
C4209       C  0.67845029  0.52896981  0.23923960    -0.04700
C4210       C  0.69231011  0.51289737  0.22933965     0.01200
C4211       C  0.70776397  0.49662834  0.23833413    -0.07300
C4212       C  0.70612782  0.00895938  0.25419860    -0.04700
C4213       C  0.67286810  0.99718515  0.25976958     0.01200
C4214       C  0.67732268  0.52755940  0.25805297    -0.07200
C4215       C  0.60973693  0.97016642  0.25213790     0.63100
H4216       H  0.66648502  0.54092384  0.23192989     0.13800
H4217       H  0.72616906  0.01824743  0.26424482     0.13800
C4218       C  0.72204271  0.47804458  0.22793188     0.63400
F4219       F  0.63831868  0.54872265  0.25559772    -0.21800
F4220       F  0.60555008  0.99475667  0.26074963    -0.19100
F4221       F  0.60046622  0.94275912  0.26342895    -0.18800
F4222       F  0.74483713  0.49962920  0.21544490    -0.18900
F4223       F  0.69615782  0.45034426  0.21911783    -0.19200
F4224       F  0.76018262  0.00014057  0.24307147    -0.21900
C4225       C  0.50583317  0.82396715  0.06417447    -0.04700
C4226       C  0.49669889  0.84108231  0.05154654     0.01200
C4227       C  0.48526673  0.86294553  0.05795730    -0.07300
C4228       C  0.97375813  0.85858013  0.07526436    -0.04700
C4229       C  0.97769210  0.83668701  0.08718545     0.01200
C4230       C  0.49834717  0.82366768  0.08244752    -0.07200
C4231       C  0.51231551  0.80801594  0.09557481     0.63100
H4232       H  0.51655399  0.80866758  0.05979730     0.13800
H4233       H  0.95944519  0.87063495  0.07908666     0.13800
C4234       C  0.98473467  0.89031963  0.04625003     0.63400
F4235       F  0.54688485  0.82324217  0.09343307    -0.21800
F4236       F  0.99742742  0.77244374  0.09103984    -0.19100
F4237       F  0.50658121  0.81275584  0.11325749    -0.18800
F4238       F  0.95160246  0.88162615  0.04270771    -0.18900
F4239       F  0.50044792  0.89414766  0.03027358    -0.19200
F4240       F  0.00043642  0.92090537  0.05552101    -0.21900
C4241       C  0.84434506  0.80419982  0.15176335    -0.04700
C4242       C  0.86260130  0.82781840  0.16528835     0.01200
C4243       C  0.89824561  0.84718507  0.16456610    -0.07300
C4244       C  0.91471424  0.84077629  0.15058522    -0.04700
C4245       C  0.89655267  0.81728113  0.13688822     0.01200
C4246       C  0.86064401  0.79901431  0.13723167    -0.07200
C4247       C  0.83931224  0.77519745  0.12212376     0.63100
H4248       H  0.81704064  0.79024828  0.15254629     0.13800
H4249       H  0.94203226  0.85449328  0.15007720     0.13800
C4250       C  0.91866405  0.87523255  0.17813043     0.63400
F4251       F  0.80575415  0.76665023  0.12335108    -0.21800
F4252       F  0.84055881  0.74540326  0.12282135    -0.19100
F4253       F  0.85096343  0.79069449  0.10568649    -0.18800
F4254       F  0.91182168  0.86246510  0.19538552    -0.18900
F4255       F  0.91037579  0.90059421  0.17651380    -0.19200
F4256       F  0.95306781  0.88972239  0.17547067    -0.21900
C4257       C  0.65207951  0.56429027  0.17606624    -0.04700
C4258       C  0.66784453  0.54586567  0.17103245     0.01200
C4259       C  0.67836295  0.54708933  0.15317003    -0.07300
C4260       C  0.67301260  0.56740217  0.14077562    -0.04700
C4261       C  0.65810783  0.58664844  0.14590712     0.01200
C4262       C  0.64758256  0.58537358  0.16381062    -0.07200
C4263       C  0.63305985  0.60721707  0.17008476     0.63100
H4264       H  0.64400766  0.56254832  0.18984021     0.13800
H4265       H  0.68180350  0.56967036  0.12711961     0.13800
C4266       C  0.69652971  0.52830917  0.14755220     0.63400
F4267       F  0.62500411  0.60243209  0.18812155    -0.21800
F4268       F  0.60396539  0.59905835  0.16045009    -0.19100
F4269       F  0.65635595  0.64122738  0.16754388    -0.18800
F4270       F  0.67644659  0.49386120  0.15073021    -0.18900
F4271       F  0.72630883  0.54053819  0.15732578    -0.19200
F4272       F  0.70431777  0.53256582  0.12947632    -0.21900
C4273       C  0.62845790  0.64606808  0.06349166    -0.04700
C4274       C  0.64994295  0.68152097  0.06207990     0.01200
C4275       C  0.65836372  0.70111817  0.07816401    -0.07300
C4276       C  0.64813552  0.68373343  0.09465798    -0.04700
C4277       C  0.63709843  0.64875035  0.09582421     0.01200
C4278       C  0.62605844  0.62907116  0.07976767    -0.07200
C4279       C  0.61590080  0.59159905  0.07893077     0.63100
H4280       H  0.62028752  0.63150080  0.05111017     0.13800
H4281       H  0.65489058  0.69813352  0.10709058     0.13800
C4282       C  0.68040344  0.73960532  0.07855592     0.63400
F4283       F  0.61556711  0.58092885  0.06148095    -0.21800
F4284       F  0.58377144  0.57206520  0.08554969    -0.19100
F4285       F  0.63842553  0.58554777  0.08858345    -0.18800
F4286       F  0.66318608  0.75418187  0.07071222    -0.18900
F4287       F  0.71029525  0.74956788  0.06969347    -0.19200
F4288       F  0.68878135  0.75221467  0.09591577    -0.21900
C4289       C  0.93556991  0.63619968  0.15405258    -0.04700
C4290       C  0.94365215  0.62468274  0.16975195     0.01200
C4291       C  0.92685062  0.58947678  0.17378498    -0.07300
C4292       C  0.90148341  0.56672965  0.16195686    -0.04700
C4293       C  0.89307733  0.57827096  0.14636241     0.01200
C4294       C  0.91054646  0.61340775  0.14208073    -0.07200
C4295       C  0.90333745  0.62666731  0.12479644     0.63100
H4296       H  0.94906555  0.66324827  0.15128850     0.13800
H4297       H  0.88781485  0.53971765  0.16480973     0.13800
C4298       C  0.93550176  0.57609885  0.19055830     0.63400
F4299       F  0.92598465  0.66094411  0.12235080    -0.21800
F4300       F  0.87125193  0.62248580  0.12513810    -0.19100
F4301       F  0.90579360  0.60908385  0.11027514    -0.18800
F4302       F  0.93330454  0.59269152  0.20560178    -0.18900
F4303       F  0.96797924  0.58149266  0.18935020    -0.19200
F4304       F  0.91381085  0.54154643  0.19278120    -0.21900
C4305       C  0.79086282  0.98095471  0.06821334    -0.04700
C4306       C  0.81442934  0.99361976  0.05430007     0.01200
C4307       C  0.84414016  0.50295145  0.06712220    -0.07300
C4308       C  0.85223374  0.50588774  0.08550547    -0.04700
C4309       C  0.83645818  0.00441539  0.09038024     0.01200
C4310       C  0.80143986  0.98431876  0.08625001    -0.07200
C4311       C  0.77451832  0.96781376  0.10044205     0.63100
H4312       H  0.76430062  0.97101982  0.06532002     0.13800
H4313       H  0.87857892  0.52006446  0.08943868     0.13800
C4314       C  0.87256363  0.51383744  0.05384547     0.63400
F4315       F  0.75400104  0.93372178  0.09628756    -0.21800
F4316       F  0.75483914  0.98314135  0.10076382    -0.19100
F4317       F  0.78828951  0.96987093  0.11736527    -0.18800
F4318       F  0.89473901  0.54842526  0.05545619    -0.18900
F4319       F  0.86073684  0.50638373  0.03630503    -0.19200
F4320       F  0.88991210  0.49670010  0.05755376    -0.21900
C4321       C  0.80036496  0.97794304  0.74378647    -0.04700
C4322       C  0.82933594  0.99145295  0.75486124     0.01200
C4323       C  0.86128399  0.00179436  0.74706483    -0.07300
C4324       C  0.85944250  0.49870907  0.73003064    -0.04700
C4325       C  0.83119568  0.49214464  0.71951702     0.01200
C4326       C  0.80043459  0.48402603  0.72791788    -0.07200
C4327       C  0.76763266  0.47374094  0.71792133     0.63100
H4328       H  0.77602816  0.96973425  0.74975257     0.13800
H4329       H  0.88259169  0.50452776  0.72326712     0.13800
C4330       C  0.89344832  0.01358626  0.75820141     0.63400
F4331       F  0.74302508  0.44225307  0.72399534    -0.21800
F4332       F  0.77016294  0.47142420  0.69956468    -0.19100
F4333       F  0.75750979  0.49727780  0.72137006    -0.18800
F4334       F  0.88805594  0.99027454  0.77159866    -0.18900
F4335       F  0.90350841  0.04504658  0.76575678    -0.19200
F4336       F  0.91989211  0.01674858  0.74788554    -0.21900
C4337       C  0.65976658  0.66175684  0.75018186    -0.04700
C4338       C  0.69043561  0.67802226  0.75965168     0.01200
C4339       C  0.72108183  0.69319864  0.75010368    -0.07300
C4340       C  0.71974040  0.69056353  0.73122921    -0.04700
C4341       C  0.68903965  0.67210561  0.72172156     0.01200
C4342       C  0.65822564  0.65756205  0.73146503    -0.07200
C4343       C  0.62362730  0.63569898  0.72271804     0.63100
H4344       H  0.63671706  0.65034509  0.75785395     0.13800
H4345       H  0.74314433  0.70258499  0.72395924     0.13800
C4346       C  0.75569061  0.71186423  0.75899232     0.63400
F4347       F  0.59850373  0.61926424  0.73529073    -0.21800
F4348       F  0.62386550  0.61090135  0.71214890    -0.19100
F4349       F  0.61493166  0.65561014  0.71242891    -0.18800
F4350       F  0.75439405  0.71438755  0.77742131    -0.18900
F4351       F  0.77340182  0.74446878  0.75212063    -0.19200
F4352       F  0.77307017  0.69491353  0.75523308    -0.21900
C4353       C  0.52044469  0.78884390  0.74936368    -0.04700
C4354       C  0.50433511  0.80287955  0.75932967     0.01200
C4355       C  0.98849962  0.82079116  0.74999455    -0.07300
C4356       C  0.98736168  0.82028538  0.73118329    -0.04700
C4357       C  0.00462397  0.80795529  0.72110598     0.01200
C4358       C  0.52224567  0.79122242  0.73048426    -0.07200
C4359       C  0.54325878  0.77962272  0.72027052     0.63100
H4360       H  0.53255866  0.77694233  0.75648934     0.13800
H4361       H  0.97424962  0.83123511  0.72407490     0.13800
C4362       C  0.97396834  0.83997661  0.75983384     0.63400
F4363       F  0.55764431  0.76593023  0.73158643    -0.21800
F4364       F  0.56902851  0.80704016  0.71151109    -0.19100
F4365       F  0.02515973  0.75966799  0.70683560    -0.18800
F4366       F  0.49720118  0.86028147  0.77256715    -0.18900
F4367       F  0.94414080  0.81730619  0.76803395    -0.19200
F4368       F  0.96697273  0.85966804  0.74822847    -0.21900
C4369       C  0.84416735  0.93357697  0.81191109    -0.04700
C4370       C  0.82313412  0.94734474  0.81491693     0.01200
C4371       C  0.80273316  0.93800992  0.83026855    -0.07300
C4372       C  0.80404858  0.91474024  0.84227410    -0.04700
C4373       C  0.82438122  0.90010722  0.83905265     0.01200
C4374       C  0.84437207  0.90909600  0.82341221    -0.07200
C4375       C  0.86540121  0.89321556  0.81789413     0.63100
H4376       H  0.85971284  0.94118565  0.80002131     0.13800
H4377       H  0.78862134  0.90720698  0.85418768     0.15000
C4378       C  0.77914881  0.95189441  0.83360139     0.63400
F4379       F  0.86095330  0.88578905  0.79970599    -0.21800
F4380       F  0.85673584  0.86324787  0.82681964    -0.19100
F4381       F  0.89914184  0.91614771  0.82118946    -0.18800
F4382       F  0.75653089  0.94323565  0.81939338    -0.18900
F4383       F  0.79757510  0.98693605  0.83518280    -0.19200
F4384       F  0.76087686  0.93895755  0.84917498    -0.21900
C4385       C  0.86293035  0.86765660  0.90209224    -0.04700
C4386       C  0.84371968  0.84022917  0.89040936     0.01200
C4387       C  0.82902862  0.80677439  0.89749233    -0.07300
C4388       C  0.82558664  0.80243314  0.91614286    -0.04700
C4389       C  0.84031182  0.83039342  0.92791764     0.01200
C4390       C  0.86312074  0.86286462  0.92072279    -0.07200
C4391       C  0.88677537  0.89347707  0.93210095     0.63100
H4392       H  0.87572036  0.89343795  0.89712017     0.13800
H4393       H  0.80896269  0.77713555  0.92115826     0.13800
C4394       C  0.81493022  0.77496845  0.88596175     0.63400
F4395       F  0.91937809  0.90653476  0.92595086    -0.21800
F4396       F  0.88671804  0.88535668  0.95002343    -0.19100
F4397       F  0.87774751  0.91834668  0.93057777    -0.18800
F4398       F  0.82264017  0.78237987  0.86801665    -0.18900
F4399       F  0.78023163  0.75611389  0.88775976    -0.19200
F4400       F  0.82871996  0.75538864  0.89168793    -0.21900
C4401       C  0.98149870  0.65067869  0.88794750    -0.04700
C4402       C  0.50227791  0.63695953  0.88958954     0.01200
C4403       C  0.50230271  0.62212909  0.90642694    -0.07300
C4404       C  0.48593274  0.62754702  0.92093811    -0.04700
C4405       C  0.97509175  0.65051109  0.92028354     0.01200
C4406       C  0.97003462  0.66061866  0.90301189    -0.07200
C4407       C  0.95567815  0.68418915  0.90037666     0.63100
H4408       H  0.98014388  0.66025124  0.87479708     0.13800
H4409       H  0.48768057  0.61853619  0.93418095     0.13800
C4410       C  0.52158450  0.60330185  0.90977351     0.63400
F4411       F  0.95536614  0.69248437  0.88249313    -0.21800
F4412       F  0.97481574  0.71422327  0.90977871    -0.19100
F4413       F  0.92273798  0.66824934  0.90619354    -0.18800
F4414       F  0.55495751  0.62315712  0.90488667    -0.18900
F4415       F  0.50674246  0.57333620  0.90008250    -0.19200
F4416       F  0.52122922  0.59485588  0.92769243    -0.21900
C4417       C  0.58183186  0.64441335  0.83026279    -0.04700
C4418       C  0.59637546  0.66131950  0.84648893     0.01200
C4419       C  0.63189300  0.67722379  0.84907632    -0.07300
C4420       C  0.65192696  0.67791037  0.83469315    -0.04700
C4421       C  0.63744523  0.66214185  0.81827177     0.01200
C4422       C  0.60182657  0.64376454  0.81619129    -0.07200
C4423       C  0.58509089  0.62301618  0.79934733     0.63100
H4424       H  0.55464385  0.63196004  0.82865985     0.13800
H4425       H  0.67914849  0.69053424  0.83620229     0.13800
C4426       C  0.64849399  0.69207907  0.86714732     0.63400
F4427       F  0.55021110  0.60674702  0.80019384    -0.21800
F4428       F  0.59427078  0.59842053  0.79724076    -0.19100
F4429       F  0.59504648  0.64382233  0.78443978    -0.18800
F4430       F  0.68189298  0.69980624  0.86767742    -0.18900
F4431       F  0.63160682  0.66877206  0.88059550    -0.19200
F4432       F  0.64782914  0.72165610  0.87058294    -0.21900
C4433       C  0.58407635  0.87939833  0.84453014    -0.04700
C4434       C  0.59874956  0.91258186  0.83771731     0.01200
C4435       C  0.59115549  0.91820665  0.82006209    -0.07300
C4436       C  0.56831951  0.88999914  0.80973597    -0.04700
C4437       C  0.55355311  0.85677291  0.81653590     0.01200
C4438       C  0.56147898  0.85111275  0.83415002    -0.07200
C4439       C  0.54709985  0.81545768  0.84167184     0.63100
H4440       H  0.59097399  0.87585551  0.85800554     0.13800
H4441       H  0.56176165  0.89361559  0.79619429     0.13800
C4442       C  0.60745078  0.95372378  0.81219543     0.63400
F4443       F  0.56078241  0.81560928  0.85839399    -0.21800
F4444       F  0.55409752  0.79584141  0.83022212    -0.19100
F4445       F  0.51254475  0.80067801  0.84345707    -0.18800
F4446       F  0.64219001  0.96799916  0.81243429    -0.18900
F4447       F  0.59883698  0.97380996  0.82223279    -0.19200
F4448       F  0.59711098  0.95346250  0.79460733    -0.21900
C4449       C  0.66593296  0.51373487  0.89177253    -0.04700
C4450       C  0.65966000  0.48099620  0.88734216     0.01200
C4451       C  0.65495602  0.45756560  0.90116351    -0.07300
C4452       C  0.65761113  0.46820835  0.91903053    -0.04700
C4453       C  0.66264912  0.50047655  0.92354889     0.01200
C4454       C  0.66569045  0.52332257  0.90972632    -0.07200
C4455       C  0.66722903  0.55704434  0.91299718     0.63100
H4456       H  0.66980228  0.53155290  0.88109532     0.13800
H4457       H  0.65528329  0.45103984  0.92978726     0.13800
C4458       C  0.62755147  0.92529907  0.90266002     0.63400
F4459       F  0.64381153  0.55932874  0.90197863    -0.21800
F4460       F  0.69911204  0.58331794  0.90892575    -0.19100
F4461       F  0.65991334  0.56083777  0.93048640    -0.18800
F4462       F  0.67386875  0.42181194  0.88863797    -0.18900
F4463       F  0.59987662  0.91069615  0.89116577    -0.19200
F4464       F  0.61806358  0.90780230  0.91875805    -0.21900
loop_ 
_geom_bond_atom_site_label_1 
_geom_bond_atom_site_label_2 
_geom_bond_distance 
_geom_bond_site_symmetry_2 
_ccdc_geom_bond_type 
N1            N2   1.328       .  A
N1            C5   1.348       .  A
N1           Cu9   2.096       .  S
N2            C3   1.348       .  A
N2        Cu1124   2.093       .  S
C3            C4   1.382       .  A
C3            H6   1.082       .  S
C4            C5   1.382       .  A
C4           N39   1.443       .  S
C5            H7   1.082       .  S
Cu8          N11   2.094       .  S
Cu8        N1118   2.095   1_545  S
Cu9        N2251   2.094       .  S
Cu10         N12   2.069       .  S
Cu10         N18   2.068   1_545  S
N11        N2244   1.323       .  A
N11          C15   1.352       .  A
N12        N2243   1.323   1_455  A
N12          C13   1.345       .  A
C13          C14   1.381       .  A
C13          H16   1.082       .  S
C14        C2247   1.388   1_455  A
C14          N32   1.442       .  S
C15        C2246   1.387       .  A
C15          H17   1.082       .  S
N18        N1135   1.323       .  A
N18          C22   1.340       .  A
N19        N1134   1.322       .  A
N19          C20   1.354       .  A
N19       Cu2241   2.097   1_455  S
C20          C21   1.391       .  A
C20          H23   1.081       .  S
C21        C1138   1.379       .  A
C21          N25   1.443       .  S
C22        C1137   1.378       .  A
C22          H24   1.080   1_565  S
N25          C29   1.353       .  A
N25        C1142   1.357       .  A
C26        N1141   1.354       .  A
C26        C1143   1.382       .  A
C26        C1102   1.478       .  S
C27          C28   1.377       .  A
C27        C1142   1.383       .  A
C27          H30   1.082       .  S
C28          C29   1.381       .  A
C28          H31   1.082       .  S
C29        C1086   1.472       .  S
N32          C36   1.365       .  A
N32          C33   1.362       .  A
C33          C34   1.388       .  A
C33        C1054   1.497       .  S
C34          C35   1.366       .  A
C34          H37   1.083       .  S
C35          C36   1.377       .  A
C35          H38   1.081       .  S
C36        C1070   1.483       .  S
N39          C43   1.358       .  A
N39          C40   1.363       .  A
C40          C41   1.390       .  A
C40        C1038   1.495       .  S
C41          C42   1.367       .  A
C41          H44   1.080       .  S
C42          C43   1.375       .  A
C42          H45   1.082       .  S
C43        C1025   1.471       .  S
N46          N47   1.326       .  A
N46          C50   1.344       .  A
N46         Cu54   2.084       .  S
N47          C48   1.350       .  A
N47         Cu53   2.091       .  S
C48          C49   1.384       .  A
C48          H51   1.081       .  S
C49          C50   1.380       .  A
C49          N84   1.438       .  S
C50          H52   1.082       .  S
Cu53         N56   2.091       .  S
Cu54         N64   2.083       .  S
Cu55         N57   2.063       .  S
Cu55         N63   2.062       .  S
N56          N57   1.323       .  A
N56          C60   1.347       .  A
N57          C58   1.345       .  A
C58          C59   1.379       .  A
C58          H61   1.079       .  S
C59          C60   1.385       .  A
C59          N77   1.438       .  S
C60          H62   1.080       .  S
N63          N64   1.322       .  A
N63          C67   1.341       .  A
N64          C65   1.350       .  A
C65          C66   1.386       .  A
C65          H68   1.081       .  S
C66          C67   1.378       .  A
C66          N70   1.435       .  S
C67          H69   1.082       .  S
N70          C74   1.351       .  A
N70          C71   1.352       .  A
C71          C72   1.384   1_455  A
C71        C1006   1.481       .  S
C72          C73   1.379       .  A
C72          H75   1.082       .  S
C73          C74   1.381   1_655  A
C73          H76   1.082       .  S
C74        C1089   1.474       .  S
N77          C81   1.356       .  A
N77          C78   1.356       .  A
C78          C79   1.386       .  A
C78         C990   1.481       .  S
C79          C80   1.377       .  A
C79          H82   1.082       .  S
C80          C81   1.379       .  A
C80          H83   1.082       .  S
C81        C1073   1.481       .  S
N84          C88   1.351       .  A
N84          C85   1.351       .  A
C85          C86   1.384       .  A
C85         C974   1.477       .  S
C86          C87   1.378       .  A
C86          H89   1.082       .  S
C87          C88   1.381       .  A
C87          H90   1.082       .  S
C88        C1022   1.471       .  S
N91          N92   1.326       .  A
N91          C95   1.353       .  A
N91         Cu99   2.105       .  S
N92          C93   1.347       .  A
N92       Cu1214   2.086   1_545  S
C93          C94   1.382       .  A
C93          H96   1.082       .  S
C94          C95   1.388       .  A
C94         N122   1.443       .  S
C95          H97   1.082       .  S
Cu98        N101   2.085   1_455  S
Cu98       N1208   2.085       .  S
Cu99       N2341   2.106   1_455  S
Cu100       N102   2.090       .  S
Cu100       N108   2.090       .  S
N101       N2334   1.325       .  A
N101        C105   1.348       .  A
N102       N2333   1.325       .  A
N102        C103   1.348       .  A
C103        C104   1.384       .  A
C103        H106   1.081       .  S
C104       C2337   1.382       .  A
C104        N129   1.442       .  S
C105       C2336   1.382       .  A
C105        H107   1.082   1_655  S
N108       N1225   1.325       .  A
N108        C112   1.349       .  A
N109       N1224   1.326       .  A
N109        C110   1.350       .  A
N109      Cu2331   2.106       .  S
C110        C111   1.388       .  A
C110        H113   1.082       .  S
C111       C1228   1.380   1_545  A
C111        N115   1.445       .  S
C112       C1227   1.383       .  A
C112        H114   1.082       .  S
N115        C119   1.359       .  A
N115        C116   1.364       .  A
C116        C117   1.388       .  A
C116       C2077   1.492       .  S
C117        C118   1.366       .  A
C117        H120   1.080       .  S
C118        C119   1.376       .  A
C118        H121   1.082       .  S
C119        C945   1.473       .  S
N122        C126   1.366       .  A
N122        C123   1.367       .  A
C123        C124   1.386       .  A
C123        C929   1.496       .  S
C124        C125   1.365       .  A
C124        H127   1.083       .  S
C125        C126   1.377       .  A
C125        H128   1.082       .  S
C126        C913   1.484       .  S
N129        C133   1.360       .  A
N129        C130   1.364       .  A
C130        C131   1.388       .  A
C130        C881   1.497       .  S
C131        C132   1.369       .  A
C131        H134   1.081       .  S
C132        C133   1.377       .  A
C132        H135   1.082       .  S
C133        C897   1.480       .  S
N136        N137   1.324       .  A
N136        C140   1.344       .  A
N136       Cu144   2.087       .  S
N137        C138   1.351       .  A
N137       Cu143   2.077       .  S
C138        C139   1.381       .  A
C138        H141   1.082       .  S
C139        C140   1.380       .  A
C139        N160   1.436       .  S
C140        H142   1.082       .  S
Cu143       N146   2.078       .  S
Cu144       N154   2.087       .  S
Cu145       N147   2.089       .  S
Cu145       N153   2.087       .  S
N146        N147   1.324       .  A
N146        C150   1.344       .  A
N147        C148   1.347       .  A
C148        C149   1.387       .  A
C148        H151   1.078       .  S
C149        C150   1.382       .  A
C149        N174   1.442       .  S
C150        H152   1.079       .  S
N153        N154   1.323       .  A
N153        C157   1.352       .  A
N154        C155   1.345       .  A
C155        C156   1.385       .  A
C155        H158   1.080       .  S
C156        C157   1.386       .  A
C156        N167   1.446       .  S
C157        H159   1.082       .  S
N160        C164   1.356       .  A
N160        C161   1.358   1_545  A
C161        C162   1.387       .  A
C161        C862   1.489       .  S
C162        C163   1.375       .  A
C162        H165   1.083       .  S
C163        C164   1.380   1_565  A
C163        H166   1.082       .  S
C164        C910   1.486       .  S
N167        C171   1.359       .  A
N167        C168   1.365       .  A
C168        C169   1.391       .  A
C168        C846   1.498       .  S
C169        C170   1.368       .  A
C169       H2404   1.080       .  S
C170        C171   1.373       .  A
C170        H173   1.082       .  S
C171        C942   1.472       .  S
H172       C2401   1.080       .  S
N174        C178   1.354       .  A
N174        C175   1.357       .  A
C175        C176   1.387       .  A
C175        C830   1.478       .  S
C176        C177   1.376       .  A
C176        H179   1.082       .  S
C177        C178   1.378       .  A
C177        H180   1.082       .  S
C178        C894   1.475       .  S
N181        N182   1.324       .  A
N181        C185   1.348       .  A
N181       Cu189   2.081       .  S
N182        C183   1.349       .  A
N182       Cu188   2.090       .  S
C183        C184   1.385       .  A
C183        H186   1.082       .  S
C184        C185   1.382       .  A
C184        N205   1.443       .  S
C185        H187   1.082       .  S
Cu188       N191   2.091       .  S
Cu189       N199   2.082       .  S
Cu190       N192   2.091       .  S
Cu190       N198   2.091       .  S
N191        N192   1.326       .  A
N191        C195   1.349       .  A
N192        C193   1.348       .  A
C193        C194   1.383       .  A
C193        H196   1.081       .  S
C194        C195   1.382       .  A
C194        N219   1.441       .  S
C195        H197   1.082       .  S
N198        N199   1.325       .  A
N198        C202   1.352       .  A
N199        C200   1.344       .  A
C200        C201   1.381       .  A
C200        H203   1.082       .  S
C201        C202   1.384       .  A
C201        N212   1.440       .  S
C202        H204   1.082       .  S
N205        C209   1.359       .  A
N205        C206   1.360       .  A
C206       C1323   1.387       .  A
C206        C958   1.489       .  S
C207        C208   1.369       .  A
C207       C1322   1.388       .  A
C207        H210   1.081       .  S
C208       C1325   1.377       .  A
C208        H211   1.082       .  S
C209       C1324   1.378       .  A
C209        C817   1.475       .  S
N212        C216   1.362       .  A
N212        C213   1.365       .  A
C213        C214   1.388       .  A
C213        C926   1.496       .  S
C214        C215   1.365       .  A
C214        H217   1.083       .  S
C215        C216   1.376       .  A
C215        H218   1.082       .  S
C216        C798   1.479       .  S
N219        C223   1.359   1_455  A
N219        C220   1.362   1_455  A
C220       C2453   1.388       .  A
C220        C878   1.492       .  S
C221        C222   1.369       .  A
C221       C2452   1.388       .  A
C221        H224   1.081       .  S
C222       C2455   1.376       .  A
C222        H225   1.082       .  S
C223       C2454   1.376       .  A
C223        C782   1.475       .  S
N226        N227   1.326       .  A
N226        C230   1.343       .  A
N226       Cu234   2.080       .  S
N227        C228   1.354       .  A
N227       Cu233   2.102       .  S
C228        C229   1.387       .  A
C228        H231   1.082       .  S
C229        C230   1.380       .  A
C229        N250   1.441       .  S
C230        H232   1.081       .  S
Cu233       N236   2.102       .  S
Cu234       N244   2.078       .  S
Cu235       N237   2.076       .  S
Cu235       N243   2.075       .  S
N236        N237   1.325       .  A
N236        C240   1.353       .  A
N237        C238   1.342       .  A
C238        C239   1.379       .  A
C238        H241   1.081       .  S
C239        C240   1.388       .  A
C239        N264   1.439       .  S
C240        H242   1.080       .  S
N243        N244   1.322       .  A
N243        C247   1.347       .  A
N244        C245   1.348       .  A
C245        C246   1.384       .  A
C245        H248   1.082       .  S
C246        C247   1.382       .  A
C246        N257   1.440       .  S
C247        H249   1.082       .  S
N250        C254   1.361       .  A
N250        C251   1.365       .  A
C251       C2484   1.392       .  A
C251       C1057   1.503       .  S
C252        C253   1.365       .  A
C252       C2483   1.391   1_455  A
C252        H255   1.083       .  S
C253       C2486   1.373   1_455  A
C253        H256   1.082       .  S
C254       C2485   1.373       .  A
C254        C785   1.473       .  S
N257        C261   1.357       .  A
N257        C258   1.360       .  A
C258        C259   1.389       .  A
C258       C1041   1.493       .  S
C259        C260   1.372       .  A
C259        H262   1.081       .  S
C260        C261   1.377       .  A
C260        H263   1.082       .  S
C261        C801   1.474       .  S
N264        C268   1.351       .  A
N264        C265   1.355       .  A
C265        C266   1.388   1_545  A
C265       C1105   1.479       .  S
C266       C1383   1.376       .  A
C266       H1385   1.082       .  S
C267       C1382   1.373       .  A
C267       C1384   1.377       .  A
C267        H270   1.082       .  S
C268       C1383   1.378   1_545  A
C268        C814   1.471       .  S
H269       C1382   1.082       .  S
N271        N272   1.323       .  A
N271        C275   1.348       .  A
N271       Cu279   2.097       .  S
N272        C273   1.347       .  A
N272      Cu2510   2.063       .  S
C273        C274   1.380       .  A
C273        H276   1.082       .  S
C274        C275   1.387       .  A
C274        N309   1.441       .  S
C275        H277   1.081       .  S
Cu278       N281   2.066       .  S
Cu278      N2504   2.065   1_455  S
Cu279      N1405   2.097       .  S
Cu280       N282   2.084       .  S
Cu280       N288   2.085       .  S
N281       N1398   1.323       .  A
N281        C285   1.341       .  A
N282       N1397   1.324   1_545  A
N282        C283   1.352       .  A
C283        C284   1.383       .  A
C283        H286   1.082       .  S
C284       C1401   1.376   1_545  A
C284        N302   1.435       .  S
C285       C1400   1.376       .  A
C285        H287   1.080       .  S
N288       N2521   1.324   1_455  A
N288        C292   1.343       .  A
N289       N2520   1.324       .  A
N289        C290   1.349       .  A
N289      Cu1395   2.084   1_545  S
C290        C291   1.385       .  A
C290        H293   1.081       .  S
C291       C2524   1.382       .  A
C291        N295   1.437       .  S
C292       C2523   1.383   1_455  A
C292        H294   1.081       .  S
N295        C299   1.353       .  A
N295       C2528   1.355       .  A
C296       N2527   1.356   1_455  A
C296       C2529   1.383       .  A
C296        C766   1.485       .  S
C297        C298   1.376       .  A
C297       C2528   1.383       .  A
C297        H300   1.082       .  S
C298        C299   1.381       .  A
C298        H301   1.082       .  S
C299        C750   1.477       .  S
N302        C306   1.351       .  A
N302        C303   1.352   1_545  A
C303        C304   1.385       .  A
C303        C718   1.477       .  S
C304        C305   1.380   1_565  A
C304        H307   1.082       .  S
C305        C306   1.381       .  A
C305        H308   1.082       .  S
C306        C734   1.478       .  S
N309        C313   1.359       .  A
N309        C310   1.355       .  A
C310        C311   1.382       .  A
C310        C702   1.479       .  S
C311        C312   1.376       .  A
C311        H314   1.082       .  S
C312        C313   1.382       .  A
C312        H315   1.082       .  S
C313        C686   1.482       .  S
N316        N317   1.324       .  A
N316        C320   1.343       .  A
N316       Cu324   2.078       .  S
N317        C318   1.351       .  A
N317       Cu323   2.085       .  S
C318        C319   1.383       .  A
C318        H321   1.080       .  S
C319        C320   1.378       .  A
C319        N354   1.437       .  S
C320        H322   1.079       .  S
Cu323       N326   2.086       .  S
Cu324       N334   2.076       .  S
Cu325       N327   2.080       .  S
Cu325       N333   2.080       .  S
N326        N327   1.323       .  A
N326        C330   1.344       .  A
N327        C328   1.350       .  A
C328        C329   1.385       .  A
C328        H331   1.081       .  S
C329        C330   1.384       .  A
C329        N340   1.440       .  S
C330        H332   1.081       .  S
N333        N334   1.323       .  A
N333        C337   1.342       .  A
N334        C335   1.350       .  A
C335        C336   1.385       .  A
C335        H338   1.081       .  S
C336        C337   1.381       .  A
C336        N347   1.441       .  S
C337        H339   1.079       .  S
N340        C344   1.356       .  A
N340        C341   1.360       .  A
C341        C342   1.385       .  A
C341        C993   1.492       .  S
C342        C343   1.375       .  A
C342        H345   1.081       .  S
C343        C344   1.379       .  A
C343        H346   1.082       .  S
C344        C737   1.480       .  S
N347        C351   1.354       .  A
N347        C348   1.353   1_545  A
C348        C349   1.384       .  A
C348        C977   1.475       .  S
C349        C350   1.379       .  A
C349        H352   1.082       .  S
C350        C351   1.381   1_565  A
C350        H353   1.082       .  S
C351        C753   1.475       .  S
N354        C358   1.351       .  A
N354        C355   1.356       .  A
C355        C356   1.387       .  A
C355       C1009   1.478       .  S
C356        C357   1.377       .  A
C356        H359   1.082       .  S
C357        C358   1.378       .  A
C357        H360   1.082       .  S
C358        C689   1.475       .  S
N361        N362   1.326       .  A
N361        C365   1.343       .  A
N361       Cu369   2.089       .  S
N362        C363   1.351       .  A
N362      Cu2600   2.089       .  S
C363        C364   1.384       .  A
C363        H366   1.081       .  S
C364        C365   1.383       .  A
C364        N392   1.441       .  S
C365        H367   1.082       .  S
Cu368       N371   2.089       .  S
Cu368      N2594   2.090       .  S
Cu369      N1495   2.087   1_545  S
Cu370       N372   2.087       .  S
Cu370       N378   2.086       .  S
N371       N1488   1.325   1_545  A
N371        C375   1.352       .  A
N372       N1487   1.326       .  A
N372        C373   1.346       .  A
C373        C374   1.381       .  A
C373        H376   1.082       .  S
C374       C1491   1.384       .  A
C374        N399   1.440       .  S
C375       C1490   1.385   1_545  A
C375        H377   1.082       .  S
N378       N2611   1.322       .  A
N378        C382   1.345       .  A
N379       N2610   1.322       .  A
N379        C380   1.351       .  A
N379      Cu1485   2.077       .  S
C380        C381   1.385       .  A
C380        H383   1.082       .  S
C381       C2614   1.384       .  A
C381        N385   1.441       .  S
C382       C2613   1.384       .  A
C382        H384   1.080       .  S
N385        C389   1.358       .  A
N385        C386   1.356       .  A
C386        C387   1.382       .  A
C386        C670   1.481       .  S
C387        C388   1.375       .  A
C387        H390   1.082       .  S
C388        C389   1.381       .  A
C388        H391   1.082       .  S
C389        C654   1.479       .  S
N392        C396   1.354       .  A
N392        C393   1.361       .  A
C393        C394   1.388       .  A
C393        C638   1.503       .  S
C394        C395   1.377       .  A
C394        H397   1.078       .  S
C395        C396   1.377       .  A
C395        H398   1.082       .  S
C396        C622   1.480       .  S
N399        C403   1.361       .  A
N399        C400   1.361       .  A
C400        C401   1.387       .  A
C400        C609   1.488       .  S
C401        C402   1.364       .  A
C401        H404   1.083       .  S
C402        C403   1.377       .  A
C402        H405   1.082       .  S
C403        C590   1.475       .  S
N406        N407   1.324       .  A
N406        C410   1.351       .  A
N406       Cu414   2.102       .  S
N407        C408   1.345       .  A
N407       Cu413   2.070       .  S
C408        C409   1.380       .  A
C408        H411   1.082       .  S
C409        C410   1.388       .  A
C409        N444   1.444       .  S
C410        H412   1.082       .  S
Cu413       N416   2.069       .  S
Cu414       N424   2.102       .  S
Cu415       N417   2.096       .  S
Cu415       N423   2.098       .  S
N416        N417   1.323       .  A
N416        C420   1.343       .  A
N417        C418   1.354       .  A
C418        C419   1.388       .  A
C418        H421   1.081       .  S
C419        C420   1.379       .  A
C419        N437   1.441       .  S
C420        H422   1.081       .  S
N423        N424   1.327       .  A
N423        C427   1.345       .  A
N424        C425   1.353       .  A
C425        C426   1.386       .  A
C425        H428   1.081       .  S
C426        C427   1.382       .  A
C426        N430   1.442       .  S
C427        H429   1.082       .  S
N430        C434   1.355       .  A
N430        C431   1.361       .  A
C431        C432   1.385       .  A
C431        C865   1.492       .  S
C432        C433   1.373       .  A
C432       H1551   1.080       .  S
C433        C434   1.378       .  A
C433        H436   1.082       .  S
C434        C657   1.476       .  S
H435       C1548   1.082       .  S
N437        C441   1.355       .  A
N437        C438   1.355       .  A
C438        C439   1.382       .  A
C438        C833   1.477       .  S
C439        C440   1.375       .  A
C439        H442   1.082       .  S
C440        C441   1.381       .  A
C440        H443   1.082       .  S
C441        C593   1.474       .  S
N444        C448   1.362       .  A
N444        C445   1.364       .  A
C445        C446   1.389       .  A
C445        C849   1.499       .  S
C446        C447   1.369       .  A
C446        H449   1.080   1_455  S
C447        C448   1.376       .  A
C447        H450   1.081       .  S
C448        C625   1.483       .  S
N451        N452   1.325       .  A
N451        C455   1.349       .  A
N451       Cu459   2.090       .  S
N452        C453   1.343       .  A
N452       Cu458   2.065       .  S
C453        C454   1.378       .  A
C453        H456   1.081       .  S
C454        C455   1.385       .  A
C454        N489   1.437       .  S
C455        H457   1.082       .  S
Cu458       N461   2.064       .  S
Cu459       N469   2.090       .  S
Cu460       N462   2.072       .  S
Cu460       N468   2.073       .  S
N461        N462   1.320       .  A
N461        C465   1.342       .  A
N462        C463   1.348       .  A
C463        C464   1.386       .  A
C463        H466   1.081       .  S
C464        C465   1.381       .  A
C464        N482   1.441       .  S
C465        H467   1.081       .  S
N468        N469   1.324       .  A
N468        C472   1.340       .  A
N469        C470   1.352       .  A
C470        C471   1.386       .  A
C470        H473   1.081       .  S
C471        C472   1.379       .  A
C471        N475   1.436       .  S
C472        H474   1.081       .  S
N475        C479   1.353       .  A
N475        C476   1.359       .  A
C476       C2709   1.389       .  A
C476        C673   1.492       .  S
C477        C478   1.374       .  A
C477       C2708   1.389   1_455  A
C477        H480   1.083       .  S
C478       C2711   1.378   1_455  A
C478        H481   1.082       .  S
C479       C2710   1.378       .  A
C479        C574   1.480       .  S
N482        C486   1.353       .  A
N482        C483   1.354       .  A
C483        C484   1.384       .  A
C483        C641   1.477       .  S
C484        C485   1.378       .  A
C484        H487   1.082       .  S
C485        C486   1.381       .  A
C485        H488   1.082       .  S
C486        C558   1.475       .  S
N489        C493   1.363       .  A
N489        C490   1.359       .  A
C490       C1607   1.386   1_545  A
C490        C606   1.489       .  S
C491        C492   1.368       .  A
C491       C1606   1.385       .  A
C491        H494   1.083       .  S
C492       C1609   1.378       .  A
C492        H495   1.082       .  S
C493       C1608   1.378   1_545  A
C493        C545   1.482       .  S
N496        N497   1.324       .  A
N496        C500   1.346       .  A
N496       Cu504   2.079       .  S
N497        C498   1.349       .  A
N497       Cu503   2.101       .  S
C498        C499   1.388       .  A
C498        H501   1.080       .  S
C499        C500   1.384       .  A
C499        N534   1.445       .  S
C500        H502   1.078       .  S
Cu503       N506   2.100       .  S
Cu504       N514   2.078       .  S
Cu505       N507   2.064       .  S
Cu505       N513   2.064       .  S
N506        N507   1.324       .  A
N506        C510   1.353       .  A
N507        C508   1.339       .  A
C508        C509   1.378       .  A
C508        H511   1.081       .  S
C509        C510   1.388       .  A
C509        N527   1.437       .  S
C510        H512   1.080       .  S
N513        N514   1.322       .  A
N513        C517   1.348       .  A
N514        C515   1.344       .  A
C515        C516   1.382       .  A
C515        H518   1.082       .  S
C516        C517   1.380       .  A
C516        N520   1.436       .  S
C517        H519   1.081       .  S
N520        C524   1.354       .  A
N520        C521   1.352       .  A
C521       C1638   1.384       .  A
C521        C721   1.483       .  S
C522        C523   1.380       .  A
C522       C1637   1.384   1_545  A
C522        H525   1.081       .  S
C523       C1640   1.382       .  A
C523        H526   1.082       .  S
C524       C1639   1.382       .  A
C524        C542   1.481       .  S
N527        C531   1.353       .  A
N527        C528   1.360       .  A
C528        C529   1.391       .  A
C528        C705   1.490       .  S
C529        C530   1.373       .  A
C529        H532   1.083       .  S
C530        C531   1.376       .  A
C530        H533   1.082       .  S
C531        C561   1.475       .  S
N534        C538   1.357       .  A
N534        C535   1.356       .  A
C535        C536   1.386   1_455  A
C535        C769   1.477       .  S
C536        C537   1.376       .  A
C536       H2771   1.082       .  S
C537        C538   1.379   1_655  A
C537       H2772   1.082       .  S
C538        C577   1.476       .  S
H539       C2768   1.082       .  S
H540       C2769   1.082       .  S
C541        C542   1.402       .  A
C541        C546   1.405       .  A
C541        H548   1.081       .  S
C542       C1659   1.412       .  A
C543        C544   1.408   1_565  A
C543       C1658   1.410   1_565  A
C543        C550   1.517       .  S
C544        C545   1.407       .  A
C544        H549   1.083   1_545  S
C545       C1662   1.417       .  A
C546       C1661   1.416       .  A
C546        C547   1.520       .  S
C547        F551   1.385       .  S
C547        F553   1.383       .  S
C547       F1668   1.379       .  S
C550        F554   1.382       .  S
C550        F556   1.384       .  S
C550       F1671   1.384       .  S
F552       C1663   1.379       .  S
F555       C1666   1.384       .  S
C557        C558   1.398       .  A
C557        C562   1.404       .  A
C557        H564   1.085       .  S
C558        C559   1.416       .  A
C559        C560   1.404       .  A
C559        C566   1.518       .  S
C560        C561   1.400       .  A
C560        H565   1.083       .  S
C561        C562   1.422       .  A
C562        C563   1.521       .  S
C563        F567   1.384       .  S
C563        F568   1.382       .  S
C563        F569   1.380       .  S
C566        F570   1.383       .  S
C566        F571   1.385       .  S
C566        F572   1.381       .  S
C573        C578   1.406       .  A
C573       C2806   1.405   1_455  A
C573        H580   1.083       .  S
C574        C575   1.414       .  A
C574       C2805   1.405       .  A
C575       C2808   1.407       .  A
C575        C582   1.517       .  S
C576        C577   1.404   1_655  A
C576       C2807   1.407       .  A
C576        H581   1.083       .  S
C577        C578   1.410       .  A
C578        C579   1.516       .  S
C579        F583   1.384       .  S
C579        F584   1.383       .  S
C579        F585   1.383       .  S
C582        F586   1.383       .  S
C582        F587   1.382       .  S
C582        F588   1.385       .  S
C589        C590   1.403       .  A
C589        C594   1.405       .  A
C589        H596   1.083       .  S
C590        C591   1.416       .  A
C591        C592   1.406       .  A
C591        C598   1.519       .  S
C592        C593   1.401       .  A
C592        H597   1.083       .  S
C593        C594   1.412       .  A
C594        C595   1.517       .  S
C595        F599   1.384       .  S
C595        F600   1.382       .  S
C595        F601   1.383       .  S
C598        F602   1.380       .  S
C598        F603   1.383       .  S
C598        F604   1.384       .  S
C605        C610   1.409       .  A
C605       C1722   1.406       .  A
C605        H612   1.083       .  S
C606        C607   1.422       .  A
C606       C1721   1.406       .  A
C607        C608   1.411       .  A
C607        C614   1.521       .  S
C608       C1725   1.406       .  A
C608        H613   1.083       .  S
C609        C610   1.416       .  A
C609       C1724   1.406       .  A
C610        C611   1.517       .  S
C611        F615   1.385       .  S
C611        F616   1.380       .  S
C611        F617   1.382       .  S
C614        F618   1.379       .  S
C614        F619   1.383       .  S
C614        F620   1.385       .  S
C621        C622   1.399       .  A
C621        C626   1.408       .  A
C621        H628   1.083       .  S
C622        C623   1.418       .  A
C623        C624   1.404       .  A
C623        C630   1.515       .  S
C624        C625   1.398       .  A
C624        H629   1.083       .  S
C625        C626   1.422       .  A
C626        C627   1.520       .  S
C627        F631   1.385       .  S
C627        F632   1.383       .  S
C627        F633   1.381       .  S
C630        F634   1.381       .  S
C630        F635   1.382       .  S
C630        F636   1.384       .  S
C637        C638   1.410       .  A
C637        C642   1.408       .  A
C637        H644   1.076       .  S
C638        C639   1.432       .  A
C639        C640   1.403       .  A
C639        C646   1.524       .  S
C640        C641   1.395       .  A
C640        H645   1.082       .  S
C641        C642   1.411       .  A
C642        C643   1.517       .  S
C643        F647   1.383       .  S
C643        F648   1.382       .  S
C643        F649   1.383       .  S
C646        F650   1.377       .  S
C646        F651   1.381       .  S
C646        F652   1.386       .  S
C653        C654   1.400       .  A
C653        C658   1.406       .  A
C653        H660   1.083       .  S
C654        C655   1.420       .  A
C655        C656   1.405       .  A
C655        C662   1.518       .  S
C656        C657   1.397       .  A
C656        H661   1.083       .  S
C657        C658   1.417       .  A
C658        C659   1.516       .  S
C659        F663   1.385       .  S
C659        F664   1.382       .  S
C659        F665   1.382       .  S
C662        F666   1.381       .  S
C662        F667   1.380       .  S
C662        F668   1.385       .  S
C669        C674   1.410       .  A
C669       C2902   1.402       .  A
C669        H676   1.083       .  S
C670        C671   1.415       .  A
C670       C2901   1.402       .  A
C671        C672   1.400       .  A
C671        C678   1.519       .  S
C672       C2905   1.405       .  A
C672        H677   1.083       .  S
C673        C674   1.419       .  A
C673       C2904   1.406       .  A
C674        C675   1.511       .  S
C675        F679   1.384       .  S
C675        F680   1.380       .  S
C675        F681   1.382       .  S
C678        F682   1.381       .  S
C678        F683   1.381       .  S
C678        F684   1.385       .  S
C685        C686   1.401       .  A
C685        C690   1.408       .  A
C685        H692   1.083       .  S
C686        C687   1.422       .  A
C687        C688   1.405       .  A
C687        C694   1.519       .  S
C688        C689   1.396       .  A
C688        H693   1.083       .  S
C689        C690   1.417       .  A
C690        C691   1.519       .  S
C691        F695   1.382       .  S
C691        F696   1.381       .  S
C691        F697   1.385       .  S
C694        F698   1.385       .  S
C694        F699   1.379       .  S
C694        F700   1.381       .  S
C701        C702   1.402       .  A
C701        C706   1.410       .  A
C701        H708   1.084       .  S
C702        C703   1.415       .  A
C703        C704   1.398       .  A
C703        C710   1.519       .  S
C704        C705   1.405       .  A
C704        H709   1.082       .  S
C705        C706   1.418       .  A
C706        C707   1.512       .  S
C707        F711   1.384       .  S
C707        F712   1.382       .  S
C707        F713   1.381       .  S
C710        F714   1.382       .  S
C710        F715   1.380       .  S
C710        F716   1.385       .  S
C717        C718   1.399   1_545  A
C717        C722   1.401       .  A
C717        H724   1.083       .  S
C718       C1835   1.416       .  A
C719        C720   1.411       .  A
C719       C1834   1.416       .  A
C719        C726   1.516       .  S
C720        C721   1.406       .  A
C720        H725   1.083       .  S
C721       C1838   1.420       .  A
C722       C1837   1.421   1_545  A
C722        C723   1.523       .  S
C723        F727   1.385       .  S
C723        F728   1.381       .  S
C723        F729   1.382       .  S
C726        F730   1.383       .  S
C726        F731   1.382       .  S
C726        F732   1.384       .  S
C733        C734   1.398       .  A
C733        C738   1.406       .  A
C733        H740   1.083       .  S
C734        C735   1.419       .  A
C735        C736   1.407       .  A
C735        C742   1.518       .  S
C736        C737   1.399       .  A
C736        H741   1.083       .  S
C737        C738   1.418       .  A
C738        C739   1.515       .  S
C739        F743   1.385       .  S
C739        F744   1.382       .  S
C739        F745   1.382       .  S
C742        F746   1.383       .  S
C742        F747   1.382       .  S
C742        F748   1.384       .  S
C749        C750   1.404       .  A
C749        C754   1.405       .  A
C749        H756   1.083       .  S
C750        C751   1.412       .  A
C751        C752   1.406       .  A
C751        C758   1.517       .  S
C752        C753   1.404       .  A
C752        H757   1.083       .  S
C753        C754   1.410       .  A
C754        C755   1.516       .  S
C755        F759   1.382       .  S
C755        F760   1.383   1_545  S
C755        F761   1.384       .  S
C758        F762   1.382       .  S
C758        F763   1.383       .  S
C758        F764   1.385       .  S
C765        C766   1.404       .  A
C765        C770   1.409       .  A
C765        H772   1.082       .  S
C766       C2999   1.421   1_455  A
C767        C768   1.402       .  A
C767       C2998   1.421       .  A
C767        C774   1.524       .  S
C768       C3001   1.401       .  A
C768        H773   1.084       .  S
C769        C770   1.416       .  A
C769       C3000   1.401   1_455  A
C770        C771   1.516       .  S
C771        F775   1.384       .  S
C771        F776   1.383       .  S
C771        F777   1.382       .  S
C774        F778   1.380       .  S
C774        F779   1.383       .  S
C774        F780   1.385       .  S
C781        C786   1.407   1_554  A
C781       C3014   1.404       .  A
C781        H788   1.083       .  S
C782        C783   1.414   1_654  A
C782       C3013   1.403       .  A
C783        C784   1.405       .  A
C783        C790   1.517       .  S
C784       C3017   1.402   1_455  A
C784        H789   1.083       .  S
C785        C786   1.411       .  A
C785       C3016   1.402       .  A
C786        C787   1.517   1_556  S
C787        F791   1.384       .  S
C787        F792   1.383       .  S
C787        F793   1.382   1_554  S
C790        F794   1.381       .  S
C790        F795   1.383   1_455  S
C790        F796   1.384       .  S
C797        C798   1.401   1_556  A
C797        C802   1.407       .  A
C797        H804   1.085       .  S
C798        C799   1.416       .  A
C799        C800   1.403   1_554  A
C799        C806   1.518       .  S
C800        C801   1.399       .  A
C800        H805   1.084       .  S
C801        C802   1.421       .  A
C802        C803   1.520       .  S
C803        F807   1.383       .  S
C803        F808   1.381       .  S
C803        F809   1.383       .  S
C806        F810   1.382       .  S
C806        F811   1.384       .  S
C806        F812   1.385       .  S
C813        C814   1.397       .  A
C813       C1934   1.405   1_556  A
C813        H820   1.083   1_556  S
C814        C815   1.417   1_545  A
C815       C1932   1.404       .  A
C815        C822   1.520       .  S
C816        C817   1.399   1_556  A
C816       C1931   1.402       .  A
C816        H821   1.083       .  S
C817        C818   1.418       .  A
C818       C1929   1.405   1_554  A
C818        C819   1.519       .  S
C819        F825   1.385       .  S
C819       F1939   1.381       .  S
C819       F1940   1.383       .  S
C822        F826   1.381       .  S
C822       F1943   1.383       .  S
C822       F1944   1.384       .  S
F823       C1935   1.381       .  S
F824       C1935   1.384       .  S
F827       C1938   1.382       .  S
F828       C1938   1.385       .  S
C829        C830   1.402       .  A
C829        C834   1.399       .  A
C829        H836   1.084       .  S
C830        C831   1.417       .  A
C831        C832   1.410       .  A
C831        C838   1.515       .  S
C832        C833   1.404       .  A
C832        H837   1.083       .  S
C833        C834   1.415       .  A
C834        C835   1.521       .  S
C835        F839   1.385       .  S
C835        F840   1.382       .  S
C835        F841   1.383       .  S
C838        F842   1.383       .  S
C838        F843   1.382       .  S
C838        F844   1.384       .  S
C845        C846   1.404       .  A
C845        C850   1.404       .  A
C845        H852   1.078       .  S
C846       C3079   1.421       .  A
C847        C848   1.404       .  A
C847       C3078   1.422       .  A
C847        C854   1.517       .  S
C848        C849   1.405       .  A
C848        H853   1.079       .  S
C849       C3082   1.420   1_455  A
C850       C3081   1.421       .  A
C850        C851   1.515       .  S
C851        F855   1.384       .  S
C851        F856   1.383       .  S
C851        F857   1.383       .  S
C854        F858   1.384       .  S
C854        F859   1.383       .  S
C854        F860   1.383       .  S
C861        C862   1.404       .  A
C861        C866   1.400       .  A
C861        H868   1.083       .  S
C862        C863   1.421   1_565  A
C863       C1980   1.413       .  A
C863        C870   1.514       .  S
C864        C865   1.406       .  A
C864       C1979   1.411       .  A
C864        H869   1.079       .  S
C865       C1982   1.427       .  A
C866       C1981   1.415       .  A
C866       C1983   1.519       .  S
C867       C1982   1.523       .  S
C867        F872   1.380       .  S
C867        F873   1.380       .  S
C867       F1987   1.385       .  S
C870        F874   1.383       .  S
C870        F875   1.380       .  S
C870       F1992   1.384   1_545  S
F871       C1983   1.385       .  S
F876       C1986   1.384       .  S
C877        C878   1.402   1_455  A
C877        C882   1.406       .  A
C877        H884   1.082       .  S
C878        C879   1.417       .  A
C879       C3112   1.405       .  A
C879       C3118   1.514       .  S
C880        C881   1.405       .  A
C880       C3111   1.406       .  A
C880        H885   1.081       .  S
C881       C3114   1.422       .  A
C882       C3113   1.424   1_455  A
C882        C883   1.516       .  S
C883        F887   1.383       .  S
C883        F889   1.383       .  S
C883       F3120   1.383       .  S
C886       C3111   1.515       .  S
C886        F890   1.383       .  S
C886        F892   1.384       .  S
C886       F3123   1.384       .  S
F888       C3115   1.383       .  S
F891       C3118   1.384       .  S
C893        C894   1.398       .  A
C893        C898   1.405       .  A
C893        H900   1.083       .  S
C894        C895   1.418       .  A
C895        C896   1.409       .  A
C895        C902   1.522       .  S
C896        C897   1.402       .  A
C896        H901   1.083       .  S
C897        C898   1.418       .  A
C898        C899   1.520       .  S
C899        F903   1.385       .  S
C899        F904   1.381       .  S
C899        F905   1.384       .  S
C902        F906   1.381       .  S
C902        F907   1.382       .  S
C902        F908   1.384       .  S
C909        C910   1.404       .  A
C909        C914   1.409       .  A
C909        H916   1.083       .  S
C910        C911   1.416       .  A
C911        C912   1.409       .  A
C911        C918   1.519       .  S
C912        C913   1.406       .  A
C912        H917   1.083       .  S
C913        C914   1.416       .  A
C914        C915   1.518       .  S
C915        F919   1.385       .  S
C915        F920   1.380       .  S
C915        F921   1.383       .  S
C918        F922   1.381   1_545  S
C918        F923   1.384       .  S
C918        F924   1.385       .  S
C925        C926   1.407       .  A
C925        C930   1.411       .  A
C925        H932   1.083       .  S
C926        C927   1.419       .  A
C927        C928   1.412       .  A
C927        C934   1.518       .  S
C928        C929   1.409       .  A
C928        H933   1.083       .  S
C929        C930   1.421       .  A
C930        C931   1.521       .  S
C931        F935   1.385       .  S
C931        F936   1.377       .  S
C931        F937   1.383       .  S
C934        F938   1.380       .  S
C934        F939   1.382       .  S
C934        F940   1.385       .  S
C941        C942   1.398       .  A
C941        C946   1.403       .  A
C941        H948   1.084       .  S
C942        C943   1.416       .  A
C943        C944   1.403       .  A
C943        C950   1.519       .  S
C944        C945   1.400       .  A
C944        H949   1.083       .  S
C945        C946   1.417       .  A
C946        C947   1.519       .  S
C947        F951   1.385       .  S
C947        F952   1.381       .  S
C947        F953   1.384       .  S
C950        F954   1.383       .  S
C950        F955   1.382       .  S
C950        F956   1.385       .  S
C957        C958   1.403       .  A
C957        C962   1.403       .  A
C957        H964   1.082       .  S
C958       C2075   1.417       .  A
C959        C960   1.405       .  A
C959       C2074   1.418   1_545  A
C959        C966   1.514       .  S
C960       C2077   1.404       .  A
C960        H965   1.081       .  S
C961        C962   1.419       .  A
C961       C2076   1.405       .  A
C961       C1232   1.490       .  S
C962        C963   1.514       .  S
C963        F967   1.383       .  S
C963        F968   1.383       .  S
C963        F969   1.384       .  S
C966        F970   1.383       .  S
C966        F971   1.384   1_545  S
C966        F972   1.383   1_545  S
C973        C974   1.403       .  A
C973       C2094   1.408       .  A
C973        H980   1.083       .  S
C974        C975   1.419       .  A
C975       C2092   1.398       .  A
C975        C982   1.523       .  S
C976        C977   1.399       .  A
C976       C2091   1.401   1_565  A
C976        H981   1.084   1_565  S
C977        C978   1.415       .  A
C978       C2089   1.408       .  A
C978        C979   1.517       .  S
C979        F983   1.383       .  S
C979        F984   1.382       .  S
C979        F985   1.383       .  S
C982        F986   1.381       .  S
C982        F987   1.381       .  S
C982        F988   1.385       .  S
C989        C990   1.398       .  A
C989        C994   1.400       .  A
C989        H996   1.081       .  S
C990        C991   1.416       .  A
C991        C992   1.412       .  A
C991        C998   1.516       .  S
C992        C993   1.407       .  A
C992        H997   1.080       .  S
C993        C994   1.423       .  A
C994        C995   1.523       .  S
C995        F999   1.385       .  S
C995       F1000   1.378       .  S
C995       F1001   1.381       .  S
C998       F1002   1.382       .  S
C998       F1003   1.383       .  S
C998       F1004   1.384       .  S
C1005      C1006   1.404       .  A
C1005      C1010   1.411       .  A
C1005      H1012   1.081       .  S
C1006      C3239   1.419   1_455  A
C1007      C1008   1.399       .  A
C1007      C3238   1.419       .  A
C1007      C1014   1.522       .  S
C1008      C1009   1.399       .  A
C1008      H1013   1.084       .  S
C1009      C3242   1.415       .  A
C1010      C3241   1.415   1_455  A
C1010      C1011   1.515       .  S
C1011      F1015   1.385       .  S
C1011      F1016   1.383       .  S
C1011      F3249   1.377   1_455  S
C1014      F1019   1.380       .  S
C1014      F1020   1.385       .  S
C1014      F3250   1.383       .  S
F1017      C3243   1.377       .  S
F1018      C3246   1.383   1_455  S
C1021      C1022   1.402       .  A
C1021      C1026   1.401       .  A
C1021      H1028   1.083       .  S
C1022      C1023   1.409       .  A
C1023      C1024   1.404       .  A
C1023      C1030   1.517       .  S
C1024      C1025   1.407       .  A
C1024      H1029   1.084       .  S
C1025      C1026   1.415       .  A
C1026      C1027   1.519       .  S
C1027      F1031   1.384       .  S
C1027      F1032   1.381       .  S
C1027      F1033   1.383       .  S
C1030      F1034   1.383       .  S
C1030      F1035   1.382       .  S
C1030      F1036   1.385       .  S
C1037      C1038   1.406       .  A
C1037      C1042   1.402       .  A
C1037      H1044   1.078       .  S
C1038      C1039   1.420       .  A
C1039      C1040   1.403       .  A
C1039      C1046   1.516       .  S
C1040      C1041   1.405       .  A
C1040      H1045   1.080       .  S
C1041      C1042   1.418       .  A
C1042      C1043   1.515       .  S
C1043      F1047   1.384       .  S
C1043      F1048   1.383       .  S
C1043      F1049   1.383       .  S
C1046      F1050   1.384       .  S
C1046      F1051   1.384       .  S
C1046      F1052   1.383       .  S
C1053      C1058   1.409       .  A
C1053      C3286   1.406       .  A
C1053      H1060   1.083       .  S
C1054      C1055   1.424       .  A
C1054      C3285   1.408   1_455  A
C1055      C1056   1.410   1_455  A
C1055      C1062   1.522       .  S
C1056      C3289   1.408       .  A
C1056      H1061   1.084       .  S
C1057      C1058   1.425       .  A
C1057      C3288   1.410       .  A
C1058      C1059   1.518       .  S
C1059      F1063   1.385       .  S
C1059      F1064   1.382       .  S
C1059      F1065   1.379       .  S
C1062      F1066   1.382       .  S
C1062      F1067   1.378       .  S
C1062      F1068   1.385       .  S
C1069      C1070   1.398       .  A
C1069      C1074   1.404       .  A
C1069      H1076   1.085       .  S
C1070      C1071   1.421       .  A
C1071      C1072   1.409       .  A
C1071      C1078   1.521       .  S
C1072      C1073   1.401       .  A
C1072      H1077   1.083       .  S
C1073      C1074   1.422       .  A
C1074      C1075   1.517       .  S
C1075      F1079   1.383       .  S
C1075      F1080   1.377       .  S
C1075      F1081   1.384       .  S
C1078      F1082   1.385       .  S
C1078      F1083   1.383       .  S
C1078      F1084   1.381       .  S
C1085      C1086   1.404       .  A
C1085      C1090   1.406       .  A
C1085      H1092   1.083       .  S
C1086      C1087   1.410       .  A
C1087      C1088   1.403       .  A
C1087      C1094   1.516       .  S
C1088      C1089   1.403       .  A
C1088      H1093   1.082       .  S
C1089      C1090   1.412       .  A
C1090      C1091   1.517       .  S
C1091      F1095   1.385       .  S
C1091      F1096   1.383       .  S
C1091      F1097   1.382       .  S
C1094      F1098   1.383       .  S
C1094      F1099   1.382       .  S
C1094      F1100   1.385       .  S
C1101      C1102   1.403   1_545  A
C1101      C1106   1.408       .  A
C1101      H1108   1.083       .  S
C1102      C1103   1.416       .  A
C1103      C1104   1.399       .  A
C1103      C2226   1.522       .  S
C1104      C1105   1.403   1_565  A
C1104      H1109   1.084       .  S
C1105      C1106   1.416       .  A
C1106      C1107   1.514       .  S
C1107      F1111   1.384       .  S
C1107      F1112   1.383       .  S
C1107      F1113   1.381       .  S
C1110      C2219   1.522       .  S
C1110      F1115   1.382       .  S
C1110      F1116   1.385       .  S
C1110      F2230   1.382       .  S
F1114      C2226   1.382       .  S
N1117      N1118   1.328       .  A
N1117      C1121   1.349       .  A
N1117     Cu1125   2.093       .  S
N1118      C1119   1.348       .  A
C1119      C1120   1.382       .  A
C1119      H1122   1.082       .  S
C1120      C1121   1.381       .  A
C1120      N1155   1.441       .  S
C1121      H1123   1.082       .  S
Cu1124     N1127   2.091       .  S
Cu1125     N3367   2.091       .  S
Cu1126     N1128   2.066       .  S
Cu1126     N1134   2.065       .  S
N1127      N3360   1.323       .  A
N1127      C1131   1.352       .  A
N1128      N3359   1.323       .  A
N1128      C1129   1.342       .  A
C1129      C1130   1.379       .  A
C1129      H1132   1.082       .  S
C1130      C3363   1.386       .  A
C1130      N1148   1.438       .  S
C1131      C3362   1.386       .  A
C1131      H1133   1.082       .  S
N1134      C1138   1.340       .  A
N1135      C1136   1.354       .  A
N1135     Cu3357   2.093   1_455  S
C1136      C1137   1.388       .  A
C1136      H1139   1.081       .  S
C1137      N1141   1.440       .  S
C1138      H1140   1.079       .  S
N1141      C1145   1.353       .  A
C1142      C2218   1.480       .  S
C1143      C1144   1.377       .  A
C1143      H1146   1.082       .  S
C1144      C1145   1.382       .  A
C1144      H1147   1.082       .  S
C1145      C2202   1.471       .  S
N1148      C1152   1.363       .  A
N1148      C1149   1.362       .  A
C1149      C1150   1.387       .  A
C1149      C2170   1.494       .  S
C1150      C1151   1.367       .  A
C1150      H1153   1.083       .  S
C1151      C1152   1.378       .  A
C1151      H1154   1.081       .  S
C1152      C2186   1.485       .  S
N1155      C1159   1.358       .  A
N1155      C1156   1.363       .  A
C1156      C1157   1.389       .  A
C1156      C2154   1.495       .  S
C1157      C1158   1.369       .  A
C1157      H1160   1.081       .  S
C1158      C1159   1.377       .  A
C1158      H1161   1.082       .  S
C1159      C2141   1.476       .  S
N1162      N1163   1.325       .  A
N1162      C1166   1.343       .  A
N1162     Cu1170   2.086       .  S
N1163      C1164   1.350       .  A
N1163     Cu1169   2.081       .  S
C1164      C1165   1.382       .  A
C1164      H1167   1.082       .  S
C1165      C1166   1.381       .  A
C1165      N1200   1.436       .  S
C1166      H1168   1.082       .  S
Cu1169     N1172   2.081       .  S
Cu1170     N1180   2.086       .  S
Cu1171     N1173   2.070       .  S
Cu1171     N1179   2.071       .  S
N1172      N1173   1.323       .  A
N1172      C1176   1.344       .  A
N1173      C1174   1.348       .  A
C1174      C1175   1.382       .  A
C1174      H1177   1.080       .  S
C1175      C1176   1.383       .  A
C1175      N1193   1.439       .  S
C1176      H1178   1.081       .  S
N1179      N1180   1.323       .  A
N1179      C1183   1.341       .  A
N1180      C1181   1.352       .  A
C1181      C1182   1.385       .  A
C1181      H1184   1.082       .  S
C1182      C1183   1.378       .  A
C1182      N1186   1.436       .  S
C1183      H1185   1.082       .  S
N1186      C1190   1.351       .  A
N1186      C1187   1.354       .  A
C1187      C1188   1.385   1_455  A
C1187      C2122   1.487       .  S
C1188      C1189   1.376       .  A
C1188      H1191   1.081       .  S
C1189      C1190   1.380   1_655  A
C1189      H1192   1.082       .  S
C1190      C2205   1.475       .  S
N1193      C1197   1.356       .  A
N1193      C1194   1.355       .  A
C1194      C1195   1.384       .  A
C1194      C2106   1.479       .  S
C1195      C1196   1.378       .  A
C1195      H1198   1.082       .  S
C1196      C1197   1.380       .  A
C1196      H1199   1.082       .  S
C1197      C2189   1.478       .  S
N1200      C1204   1.351       .  A
N1200      C1201   1.352       .  A
C1201      C1202   1.385   1_565  A
C1201      C2090   1.485       .  S
C1202      C1203   1.378       .  A
C1202      H1205   1.081       .  S
C1203      C1204   1.380   1_545  A
C1203      H1206   1.082       .  S
C1204      C2138   1.473       .  S
N1207      N1208   1.325       .  A
N1207      C1211   1.349       .  A
N1207     Cu1215   2.082   1_455  S
N1208      C1209   1.347       .  A
C1209      C1210   1.383       .  A
C1209      H1212   1.081       .  S
C1210      C1211   1.382       .  A
C1210      N1238   1.439       .  S
C1211      H1213   1.082       .  S
Cu1214     N1217   2.086   1_455  S
Cu1215     N3457   2.083       .  S
Cu1216     N1218   2.079       .  S
Cu1216     N1224   2.079   1_565  S
N1217      N3450   1.324       .  A
N1217      C1221   1.348       .  A
N1218      N3449   1.323       .  A
N1218      C1219   1.347       .  A
C1219      C1220   1.383       .  A
C1219      H1222   1.082       .  S
C1220      C3453   1.383       .  A
C1220      N1245   1.442       .  S
C1221      C3452   1.383       .  A
C1221      H1223   1.082   1_655  S
N1224      C1228   1.348   1_545  A
N1225      C1226   1.347       .  A
N1225     Cu3447   2.086       .  S
C1226      C1227   1.383       .  A
C1226      H1229   1.081       .  S
C1227      N1231   1.443       .  S
C1228      H1230   1.082       .  S
N1231      C1235   1.357       .  A
N1231      C1232   1.361       .  A
C1232      C1233   1.390       .  A
C1233      C1234   1.369       .  A
C1233      H1236   1.081       .  S
C1234      C1235   1.375       .  A
C1234      H1237   1.082       .  S
C1235      C2061   1.471       .  S
N1238      C1242   1.359       .  A
N1238      C1239   1.362       .  A
C1239      C1240   1.388       .  A
C1239      C2045   1.493       .  S
C1240      C1241   1.366       .  A
C1240      H1243   1.083       .  S
C1241      C1242   1.376       .  A
C1241      H1244   1.082       .  S
C1242      C2029   1.472       .  S
N1245      C1249   1.362       .  A
N1245      C1246   1.361       .  A
C1246      C1247   1.386       .  A
C1246      C1997   1.492       .  S
C1247      C1248   1.371       .  A
C1247      H1250   1.081       .  S
C1248      C1249   1.380       .  A
C1248      H1251   1.080       .  S
C1249      C2013   1.484       .  S
N1252      N1253   1.323       .  A
N1252      C1256   1.344       .  A
N1252     Cu1260   2.072       .  S
N1253      C1254   1.352       .  A
N1253     Cu1259   2.093       .  S
C1254      C1255   1.386       .  A
C1254      H1257   1.081       .  S
C1255      C1256   1.378       .  A
C1255      N1276   1.439       .  S
C1256      H1258   1.080       .  S
Cu1259     N1262   2.094       .  S
Cu1260     N1270   2.072       .  S
Cu1261     N1263   2.093       .  S
Cu1261     N1269   2.092       .  S
N1262      N1263   1.326       .  A
N1262      C1266   1.346       .  A
N1263      C1264   1.350       .  A
C1264      C1265   1.385       .  A
C1264      H1267   1.080       .  S
C1265      C1266   1.382       .  A
C1265      N1290   1.442       .  S
C1266      H1268   1.079       .  S
N1269      N1270   1.323       .  A
N1269      C1273   1.351       .  A
N1270      C1271   1.344       .  A
C1271      C1272   1.381       .  A
C1271      H1274   1.080       .  S
C1272      C1273   1.386       .  A
C1272      N1283   1.443       .  S
C1273      H1275   1.082       .  S
N1276      C1280   1.352       .  A
N1276      C1277   1.355       .  A
C1277      C1278   1.384       .  A
C1277      C1978   1.477       .  S
C1278      C1279   1.376       .  A
C1278      H1281   1.082       .  S
C1279      C1280   1.379       .  A
C1279      H1282   1.082       .  S
C1280      C2026   1.472       .  S
N1283      C1287   1.356       .  A
N1283      C1284   1.360       .  A
C1284      C1285   1.391       .  A
C1284      C1962   1.492       .  S
C1285      C1286   1.371       .  A
C1285      H3520   1.081       .  S
C1286      C1287   1.375       .  A
C1286      H1289   1.082       .  S
C1287      C2058   1.470       .  S
H1288      C3517   1.081       .  S
N1290      C1294   1.354       .  A
N1290      C1291   1.358       .  A
C1291      C1292   1.386       .  A
C1291      C1946   1.478       .  S
C1292      C1293   1.375       .  A
C1292      H1295   1.082       .  S
C1293      C1294   1.378       .  A
C1293      H1296   1.082       .  S
C1294      C2010   1.472       .  S
N1297      N1298   1.322       .  A
N1297      C1301   1.348       .  A
N1297     Cu1305   2.083       .  S
N1298      C1299   1.347       .  A
N1298     Cu1304   2.076       .  S
C1299      C1300   1.384       .  A
C1299      H1302   1.081       .  S
C1300      C1301   1.384       .  A
C1300      N1321   1.442       .  S
C1301      H1303   1.082       .  S
Cu1304     N1307   2.076       .  S
Cu1305     N1315   2.084       .  S
Cu1306     N1308   2.101       .  S
Cu1306     N1314   2.100       .  S
N1307      N1308   1.326       .  A
N1307      C1311   1.346       .  A
N1308      C1309   1.350       .  A
C1309      C1310   1.386       .  A
C1309      H1312   1.081       .  S
C1310      C1311   1.378       .  A
C1310      N1335   1.440       .  S
C1311      H1313   1.082       .  S
N1314      N1315   1.326       .  A
N1314      C1318   1.354       .  A
N1315      C1316   1.344       .  A
C1316      C1317   1.381       .  A
C1316      H1319   1.081       .  S
C1317      C1318   1.387       .  A
C1317      N1328   1.442       .  S
C1318      H1320   1.082       .  S
N1321      C1325   1.358   1_565  A
N1321      C1322   1.360   1_565  A
C1322      C2074   1.490   1_545  S
C1323      C1324   1.370       .  A
C1323      H1326   1.081       .  S
C1324      H1327   1.082       .  S
C1325      C1933   1.476       .  S
N1328      C1332   1.362       .  A
N1328      C1329   1.365       .  A
C1329      C1330   1.390       .  A
C1329      C2042   1.499       .  S
C1330      C1331   1.363       .  A
C1330      H1333   1.083       .  S
C1331      C1332   1.374       .  A
C1331      H1334   1.082       .  S
C1332      C1914   1.475       .  S
N1335      C1339   1.356   1_455  A
N1335      C1336   1.360   1_455  A
C1336      C3569   1.388       .  A
C1336      C1994   1.490       .  S
C1337      C3568   1.388       .  A
C1337      C1338   1.370       .  A
C1337      H1340   1.081       .  S
C1338      C3571   1.376       .  A
C1338      H1341   1.082       .  S
C1339      C3570   1.376       .  A
C1339      C1898   1.470   1_554  S
N1342      N1343   1.325       .  A
N1342      C1346   1.342       .  A
N1342     Cu1350   2.082       .  S
N1343      C1344   1.354       .  A
N1343     Cu1349   2.094       .  S
C1344      C1345   1.386       .  A
C1344      H1347   1.082       .  S
C1345      C1346   1.381       .  A
C1345      N1366   1.442       .  S
C1346      H1348   1.080       .  S
Cu1349     N1352   2.094       .  S
Cu1350     N1360   2.082       .  S
Cu1351     N1353   2.088       .  S
Cu1351     N1359   2.087       .  S
N1352      N1353   1.325       .  A
N1352      C1356   1.350       .  A
N1353      C1354   1.345       .  A
C1354      C1355   1.382       .  A
C1354      H1357   1.081       .  S
C1355      C1356   1.386       .  A
C1355      N1380   1.440       .  S
C1356      H1358   1.079       .  S
N1359      N1360   1.322       .  A
N1359      C1363   1.349       .  A
N1360      C1361   1.348       .  A
C1361      C1362   1.385       .  A
C1361      H1364   1.082       .  S
C1362      C1363   1.386       .  A
C1362      N1373   1.445       .  S
C1363      H1365   1.081       .  S
N1366      C1370   1.360       .  A
N1366      C1367   1.363       .  A
C1367      C3600   1.389       .  A
C1367      C2173   1.492       .  S
C1368      C3599   1.389   1_455  A
C1368      C1369   1.366       .  A
C1368      H1371   1.083       .  S
C1369      C3602   1.374   1_455  A
C1369      H1372   1.082       .  S
C1370      C3601   1.374       .  A
C1370      C1901   1.472       .  S
N1373      C1377   1.358       .  A
N1373      C1374   1.363       .  A
C1374      C1375   1.388       .  A
C1374      C2157   1.492       .  S
C1375      C1376   1.369       .  A
C1375      H1378   1.081       .  S
C1376      C1377   1.376       .  A
C1376      H1379   1.082       .  S
C1377      C1917   1.472       .  S
N1380      C1384   1.352       .  A
N1380      C1381   1.357       .  A
C1381      C1382   1.387       .  A
C1381      C2221   1.479       .  S
C1383      H1386   1.082       .  S
C1384      C1930   1.470       .  S
N1387      N1388   1.323       .  A
N1387      C1391   1.345       .  A
N1387     Cu1395   2.084       .  S
N1388      C1389   1.348       .  A
N1388     Cu3626   2.071       .  S
C1389      C1390   1.383       .  A
C1389      H1392   1.081       .  S
C1390      C1391   1.384       .  A
C1390      N1425   1.441       .  S
C1391      H1393   1.080       .  S
Cu1394     N3620   2.069   1_455  S
Cu1394     N1397   2.070       .  S
Cu1396     N1398   2.091       .  S
Cu1396     N1404   2.092       .  S
N1397      C1401   1.340       .  A
N1398      C1399   1.353       .  A
C1399      C1400   1.386       .  A
C1399      H1402   1.082       .  S
C1400      N1418   1.437       .  S
C1401      H1403   1.080       .  S
N1404      N3637   1.325   1_455  A
N1404      C1408   1.344       .  A
N1405      N3636   1.325       .  A
N1405      C1406   1.351       .  A
C1406      C1407   1.387       .  A
C1406      H1409   1.082       .  S
C1407      C3640   1.383       .  A
C1407      N1411   1.441       .  S
C1408      C3639   1.384   1_455  A
C1408      H1410   1.081       .  S
N1411      C1415   1.353       .  A
N1411      C3644   1.358       .  A
C1412      N3643   1.358   1_455  A
C1412      C3645   1.385       .  A
C1412      C1882   1.489       .  S
C1413      C3644   1.385       .  A
C1413      C1414   1.377       .  A
C1413      H1416   1.081       .  S
C1414      C1415   1.380       .  A
C1414      H1417   1.082       .  S
C1415      C1866   1.473       .  S
N1418      C1422   1.351       .  A
N1418      C1419   1.353       .  A
C1419      C1420   1.386       .  A
C1419      C1834   1.477       .  S
C1420      C1421   1.379       .  A
C1420      H1423   1.082       .  S
C1421      C1422   1.380       .  A
C1421      H1424   1.082       .  S
C1422      C1850   1.475       .  S
N1425      C1429   1.356       .  A
N1425      C1426   1.354       .  A
C1426      C1427   1.382       .  A
C1426      C1818   1.475       .  S
C1427      C1428   1.376       .  A
C1427      H1430   1.082       .  S
C1428      C1429   1.382       .  A
C1428      H1431   1.082       .  S
C1429      C1802   1.475       .  S
N1432      N1433   1.325       .  A
N1432      C1436   1.343       .  A
N1432     Cu1440   2.079       .  S
N1433      C1434   1.351       .  A
N1433     Cu1439   2.088       .  S
C1434      C1435   1.385       .  A
C1434      H1437   1.081       .  S
C1435      C1436   1.379       .  A
C1435      N1470   1.439       .  S
C1436      H1438   1.079       .  S
Cu1439     N1442   2.089       .  S
Cu1440     N1450   2.078       .  S
Cu1441     N1443   2.082       .  S
Cu1441     N1449   2.082       .  S
N1442      N1443   1.323       .  A
N1442      C1446   1.345       .  A
N1443      C1444   1.349       .  A
C1444      C1445   1.385       .  A
C1444      H1447   1.081       .  S
C1445      C1446   1.385       .  A
C1445      N1456   1.441       .  S
C1446      H1448   1.082       .  S
N1449      N1450   1.323       .  A
N1449      C1453   1.343       .  A
N1450      C1451   1.350       .  A
C1451      C1452   1.384       .  A
C1451      H1454   1.081       .  S
C1452      C1453   1.381       .  A
C1452      N1463   1.441       .  S
C1453      H1455   1.078       .  S
N1456      C1460   1.353       .  A
N1456      C1457   1.360       .  A
C1457      C1458   1.386       .  A
C1457      C2109   1.495       .  S
C1458      C1459   1.376       .  A
C1458      H1461   1.080       .  S
C1459      C1460   1.378       .  A
C1459      H1462   1.082       .  S
C1460      C1853   1.477       .  S
N1463      C1467   1.353       .  A
N1463      C1464   1.354       .  A
C1464      C1465   1.386       .  A
C1464      C2093   1.475       .  S
C1465      C1466   1.377       .  A
C1465      H1468   1.082       .  S
C1466      C1467   1.379       .  A
C1466      H1469   1.082       .  S
C1467      C1869   1.473       .  S
N1470      C1474   1.351       .  A
N1470      C1471   1.354       .  A
C1471      C1472   1.385       .  A
C1471      C2125   1.476       .  S
C1472      C1473   1.378       .  A
C1472      H1475   1.082       .  S
C1473      C1474   1.380       .  A
C1473      H1476   1.082       .  S
C1474      C1805   1.473       .  S
N1477      N1478   1.325       .  A
N1477      C1481   1.341       .  A
N1477     Cu1485   2.078       .  S
N1478      C1479   1.352       .  A
N1478     Cu3716   2.092       .  S
C1479      C1480   1.386       .  A
C1479      H1482   1.081       .  S
C1480      C1481   1.379       .  A
C1480      N1508   1.440       .  S
C1481      H1483   1.082       .  S
Cu1484     N3710   2.092       .  S
Cu1484     N1487   2.092       .  S
Cu1486     N1488   2.082       .  S
Cu1486     N1494   2.081       .  S
N1487      C1491   1.351       .  A
N1488      C1489   1.344       .  A
C1489      C1490   1.381       .  A
C1489      H1492   1.082       .  S
C1490      N1515   1.440       .  S
C1491      H1493   1.082       .  S
N1494      N3727   1.321       .  A
N1494      C1498   1.343       .  A
N1495      N3726   1.322       .  A
N1495      C1496   1.352       .  A
C1496      C1497   1.388       .  A
C1496      H1499   1.082       .  S
C1497      C3730   1.384       .  A
C1497      N1501   1.441       .  S
C1498      C3729   1.384       .  A
C1498      H1500   1.081       .  S
N1501      C1505   1.356       .  A
N1501      C1502   1.361       .  A
C1502      C1503   1.385       .  A
C1502      C1786   1.492       .  S
C1503      C1504   1.375       .  A
C1503      H1506   1.081       .  S
C1504      C1505   1.379       .  A
C1504      H1507   1.082       .  S
C1505      C1770   1.480       .  S
N1508      C1512   1.352       .  A
N1508      C1509   1.359       .  A
C1509      C1510   1.386       .  A
C1509      C1754   1.492       .  S
C1510      C1511   1.376       .  A
C1510      H1513   1.080       .  S
C1511      C1512   1.378       .  A
C1511      H1514   1.082       .  S
C1512      C1738   1.476       .  S
N1515      C1519   1.360       .  A
N1515      C1516   1.361       .  A
C1516      C1517   1.388       .  A
C1516      C1725   1.487   1_565  S
C1517      C1518   1.364       .  A
C1517      H1520   1.083       .  S
C1518      C1519   1.376       .  A
C1518      H1521   1.082       .  S
C1519      C1706   1.472       .  S
N1522      N1523   1.323       .  A
N1522      C1526   1.351       .  A
N1522     Cu1530   2.090       .  S
N1523      C1524   1.343       .  A
N1523     Cu1529   2.066       .  S
C1524      C1525   1.380       .  A
C1524      H1527   1.081       .  S
C1525      C1526   1.387       .  A
C1525      N1560   1.442       .  S
C1526      H1528   1.082       .  S
Cu1529     N1532   2.065       .  S
Cu1530     N1540   2.091       .  S
Cu1531     N1533   2.104       .  S
Cu1531     N1539   2.106       .  S
N1532      N1533   1.323       .  A
N1532      C1536   1.342       .  A
N1533      C1534   1.355       .  A
C1534      C1535   1.389       .  A
C1534      H1537   1.081       .  S
C1535      C1536   1.377       .  A
C1535      N1553   1.440       .  S
C1536      H1538   1.082       .  S
N1539      N1540   1.329       .  A
N1539      C1543   1.348       .  A
N1540      C1541   1.350       .  A
C1541      C1542   1.380       .  A
C1541      H1544   1.082       .  S
C1542      C1543   1.382       .  A
C1542      N1546   1.440       .  S
C1543      H1545   1.082       .  S
N1546      C1550   1.359       .  A
N1546      C1547   1.354       .  A
C1547      C1548   1.382   1_565  A
C1547      C1981   1.482       .  S
C1548      C1549   1.378       .  A
C1549      C1550   1.384   1_545  A
C1549      H1552   1.081       .  S
C1550      C1773   1.487       .  S
N1553      C1557   1.355       .  A
N1553      C1554   1.354       .  A
C1554      C1555   1.381       .  A
C1554      C1949   1.475       .  S
C1555      C1556   1.374       .  A
C1555      H1558   1.082       .  S
C1556      C1557   1.382       .  A
C1556      H1559   1.082       .  S
C1557      C1709   1.473       .  S
N1560      C1564   1.360       .  A
N1560      C1561   1.363       .  A
C1561      C1562   1.390   1_455  A
C1561      C1965   1.497       .  S
C1562      C1563   1.369   1_655  A
C1562      H1565   1.080       .  S
C1563      C1564   1.375       .  A
C1563      H1566   1.082       .  S
C1564      C1741   1.479       .  S
N1567      N1568   1.323       .  A
N1567      C1571   1.351       .  A
N1567     Cu1575   2.090       .  S
N1568      C1569   1.343       .  A
N1568     Cu1574   2.068       .  S
C1569      C1570   1.379       .  A
C1569      H1572   1.081       .  S
C1570      C1571   1.387       .  A
C1570      N1605   1.438       .  S
C1571      H1573   1.082       .  S
Cu1574     N1577   2.067       .  S
Cu1575     N1585   2.091       .  S
Cu1576     N1578   2.087       .  S
Cu1576     N1584   2.089       .  S
N1577      N1578   1.321       .  A
N1577      C1581   1.340       .  A
N1578      C1579   1.354       .  A
C1579      C1580   1.388       .  A
C1579      H1582   1.082       .  S
C1580      C1581   1.379       .  A
C1580      N1598   1.441       .  S
C1581      H1583   1.079       .  S
N1584      N1585   1.327       .  A
N1584      C1588   1.343       .  A
N1585      C1586   1.351       .  A
C1586      C1587   1.384       .  A
C1586      H1589   1.081       .  S
C1587      C1588   1.380       .  A
C1587      N1591   1.438       .  S
C1588      H1590   1.079       .  S
N1591      C1595   1.352       .  A
N1591      C1592   1.355       .  A
C1592      C3825   1.385       .  A
C1592      C1789   1.478       .  S
C1593      C3824   1.385       .  A
C1593      C1594   1.377       .  A
C1593      H1596   1.082       .  S
C1594      C3827   1.380       .  A
C1594      H1597   1.082       .  S
C1595      C3826   1.380       .  A
C1595      C1690   1.475       .  S
N1598      C1602   1.352       .  A
N1598      C1599   1.354       .  A
C1599      C1600   1.384       .  A
C1599      C1757   1.473       .  S
C1600      C1601   1.377       .  A
C1600      H1603   1.082       .  S
C1601      C1602   1.381       .  A
C1601      H1604   1.082       .  S
C1602      C1674   1.473       .  S
N1605      C1609   1.362       .  A
N1605      C1606   1.360       .  A
C1606      C1722   1.487       .  S
C1607      C1608   1.368       .  A
C1607      H1610   1.083       .  S
C1608      H1611   1.082       .  S
C1609      C1661   1.481       .  S
N1612      N1613   1.323       .  A
N1612      C1616   1.348       .  A
N1612     Cu1620   2.084       .  S
N1613      C1614   1.345       .  A
N1613     Cu1619   2.084       .  S
C1614      C1615   1.383       .  A
C1614      H1617   1.079       .  S
C1615      C1616   1.387       .  A
C1615      N1650   1.443       .  S
C1616      H1618   1.080       .  S
Cu1619     N1622   2.084       .  S
Cu1620     N1630   2.084       .  S
Cu1621     N1623   2.072       .  S
Cu1621     N1629   2.071       .  S
N1622      N1623   1.324       .  A
N1622      C1626   1.350       .  A
N1623      C1624   1.342       .  A
C1624      C1625   1.380       .  A
C1624      H1627   1.082       .  S
C1625      C1626   1.384       .  A
C1625      N1643   1.435       .  S
C1626      H1628   1.081       .  S
N1629      N1630   1.324       .  A
N1629      C1633   1.350       .  A
N1630      C1631   1.343       .  A
C1631      C1632   1.381       .  A
C1631      H1634   1.082       .  S
C1632      C1633   1.379       .  A
C1632      N1636   1.435       .  S
C1633      H1635   1.081       .  S
N1636      C1640   1.351   1_565  A
N1636      C1637   1.352       .  A
C1637      C1837   1.486       .  S
C1638      C1639   1.379       .  A
C1638      H1641   1.082       .  S
C1639      H1642   1.082       .  S
C1640      C1658   1.479       .  S
N1643      C1647   1.349       .  A
N1643      C1644   1.355       .  A
C1644      C1645   1.391       .  A
C1644      C1821   1.483       .  S
C1645      C1646   1.375       .  A
C1645      H1648   1.083       .  S
C1646      C1647   1.375       .  A
C1646      H1649   1.082       .  S
C1647      C1677   1.472       .  S
N1650      C1654   1.355       .  A
N1650      C1651   1.355       .  A
C1651      C1652   1.385   1_455  A
C1651      C1885   1.478       .  S
C1652      C1653   1.378       .  A
C1652      H3887   1.082       .  S
C1653      C1654   1.379   1_655  A
C1653      H3888   1.082       .  S
C1654      C1693   1.474       .  S
H1655      C3884   1.082       .  S
H1656      C3885   1.082       .  S
C1657      C1658   1.402       .  A
C1657      C1662   1.406       .  A
C1657      H1664   1.082       .  S
C1659      C1660   1.409       .  A
C1659      C1666   1.517       .  S
C1660      C1661   1.406       .  A
C1660      H1665   1.083       .  S
C1662      C1663   1.520       .  S
C1663      F1667   1.385       .  S
C1663      F1669   1.383       .  S
C1666      F1670   1.381       .  S
C1666      F1672   1.384       .  S
C1673      C1674   1.398       .  A
C1673      C1678   1.405       .  A
C1673      H1680   1.083       .  S
C1674      C1675   1.420       .  A
C1675      C1676   1.404       .  A
C1675      C1682   1.519       .  S
C1676      C1677   1.396       .  A
C1676      H1681   1.083       .  S
C1677      C1678   1.418       .  A
C1678      C1679   1.519       .  S
C1679      F1683   1.385       .  S
C1679      F1684   1.381       .  S
C1679      F1685   1.382       .  S
C1682      F1686   1.381       .  S
C1682      F1687   1.385       .  S
C1682      F1688   1.381       .  S
C1689      C3922   1.404   1_455  A
C1689      C1694   1.405       .  A
C1689      H1696   1.084       .  S
C1690      C3921   1.404       .  A
C1690      C1691   1.411       .  A
C1691      C3924   1.406       .  A
C1691      C1698   1.515       .  S
C1692      C3923   1.406       .  A
C1692      C1693   1.404   1_655  A
C1692      H1697   1.083       .  S
C1693      C1694   1.410       .  A
C1694      C1695   1.516       .  S
C1695      F1699   1.384       .  S
C1695      F1700   1.383       .  S
C1695      F1701   1.383       .  S
C1698      F1702   1.383       .  S
C1698      F1703   1.383       .  S
C1698      F1704   1.385       .  S
C1705      C1706   1.403       .  A
C1705      C1710   1.405       .  A
C1705      H1712   1.083       .  S
C1706      C1707   1.414       .  A
C1707      C1708   1.403       .  A
C1707      C1714   1.519       .  S
C1708      C1709   1.401       .  A
C1708      H1713   1.082       .  S
C1709      C1710   1.414       .  A
C1710      C1711   1.519       .  S
C1711      F1715   1.385       .  S
C1711      F1716   1.381       .  S
C1711      F1717   1.383       .  S
C1714      F1718   1.380   1_565  S
C1714      F1719   1.383       .  S
C1714      F1720   1.385       .  S
C1721      C1726   1.408       .  A
C1721      H1728   1.083       .  S
C1722      C1723   1.420       .  A
C1723      C1724   1.410       .  A
C1723      C1730   1.521       .  S
C1724      H1729   1.083       .  S
C1725      C1726   1.416       .  A
C1726      C1727   1.516       .  S
C1727      F1731   1.384       .  S
C1727      F1732   1.380       .  S
C1727      F1733   1.382   1_545  S
C1730      F1734   1.378       .  S
C1730      F1735   1.383       .  S
C1730      F1736   1.385       .  S
C1737      C1738   1.398       .  A
C1737      C1742   1.405       .  A
C1737      H1744   1.083       .  S
C1738      C1739   1.418       .  A
C1739      C1740   1.405       .  A
C1739      C1746   1.517       .  S
C1740      C1741   1.399       .  A
C1740      H1745   1.083       .  S
C1741      C1742   1.419       .  A
C1742      C1743   1.519       .  S
C1743      F1747   1.385       .  S
C1743      F1748   1.384       .  S
C1743      F1749   1.381       .  S
C1746      F1750   1.381       .  S
C1746      F1751   1.382       .  S
C1746      F1752   1.385       .  S
C1753      C1754   1.408       .  A
C1753      C1758   1.408       .  A
C1753      H1760   1.078       .  S
C1754      C1755   1.425       .  A
C1755      C1756   1.398       .  A
C1755      C1762   1.523       .  S
C1756      C1757   1.396       .  A
C1756      H1761   1.081       .  S
C1757      C1758   1.412       .  A
C1758      C1759   1.517       .  S
C1759      F1763   1.383       .  S
C1759      F1764   1.382       .  S
C1759      F1765   1.383       .  S
C1762      F1766   1.377       .  S
C1762      F1767   1.381       .  S
C1762      F1768   1.385       .  S
C1769      C1770   1.397       .  A
C1769      C1774   1.407       .  A
C1769      H1776   1.083       .  S
C1770      C1771   1.417       .  A
C1771      C1772   1.407       .  A
C1771      C1778   1.517       .  S
C1772      C1773   1.401       .  A
C1772      H1777   1.083       .  S
C1773      C1774   1.424       .  A
C1774      C1775   1.519       .  S
C1775      F1779   1.385       .  S
C1775      F1780   1.380       .  S
C1775      F1781   1.380       .  S
C1778      F1782   1.382       .  S
C1778      F1783   1.383       .  S
C1778      F1784   1.385       .  S
C1785      C4018   1.407       .  A
C1785      C1790   1.411       .  A
C1785      H1792   1.079       .  S
C1786      C4017   1.407   1_455  A
C1786      C1787   1.424       .  A
C1787      C1788   1.401       .  A
C1787      C1794   1.523       .  S
C1788      C4021   1.399       .  A
C1788      H1793   1.084       .  S
C1789      C4020   1.399       .  A
C1789      C1790   1.415       .  A
C1790      C1791   1.516       .  S
C1791      F1795   1.383       .  S
C1791      F1796   1.382       .  S
C1791      F1797   1.383       .  S
C1794      F1798   1.382       .  S
C1794      F1799   1.381       .  S
C1794      F1800   1.385       .  S
C1801      C1802   1.399       .  A
C1801      C1806   1.404       .  A
C1801      H1808   1.083       .  S
C1802      C1803   1.419       .  A
C1803      C1804   1.405       .  A
C1803      C1810   1.518       .  S
C1804      C1805   1.398       .  A
C1804      H1809   1.083       .  S
C1805      C1806   1.416       .  A
C1806      C1807   1.518       .  S
C1807      F1811   1.382       .  S
C1807      F1812   1.382       .  S
C1807      F1813   1.384       .  S
C1810      F1814   1.385       .  S
C1810      F1815   1.380       .  S
C1810      F1816   1.381       .  S
C1817      C1818   1.403       .  A
C1817      C1822   1.410       .  A
C1817      H1824   1.083       .  S
C1818      C1819   1.413       .  A
C1819      C1820   1.396       .  A
C1819      C1826   1.519       .  S
C1820      C1821   1.404       .  A
C1820      H1825   1.082       .  S
C1821      C1822   1.416       .  A
C1822      C1823   1.513       .  S
C1823      F1827   1.385       .  S
C1823      F1828   1.379       .  S
C1823      F1829   1.384       .  S
C1826      F1830   1.382       .  S
C1826      F1831   1.380       .  S
C1826      F1832   1.385       .  S
C1833      C1834   1.398       .  A
C1833      C1838   1.397       .  A
C1833      H1840   1.082       .  S
C1835      C1836   1.409       .  A
C1835      C1842   1.516       .  S
C1836      C1837   1.405       .  A
C1836      H1841   1.082       .  S
C1838      C1839   1.523       .  S
C1839      F1843   1.385       .  S
C1839      F1844   1.381       .  S
C1839      F1845   1.381       .  S
C1842      F1846   1.383       .  S
C1842      F1847   1.382       .  S
C1842      F1848   1.384       .  S
C1849      C1850   1.397       .  A
C1849      C1854   1.404       .  A
C1849      H1856   1.083       .  S
C1850      C1851   1.419       .  A
C1851      C1852   1.406       .  A
C1851      C1858   1.518       .  S
C1852      C1853   1.398       .  A
C1852      H1857   1.083       .  S
C1853      C1854   1.417       .  A
C1854      C1855   1.516       .  S
C1855      F1859   1.385       .  S
C1855      F1860   1.382       .  S
C1855      F1861   1.382       .  S
C1858      F1862   1.382       .  S
C1858      F1863   1.382       .  S
C1858      F1864   1.384       .  S
C1865      C1866   1.404       .  A
C1865      C1870   1.402       .  A
C1865      H1872   1.085       .  S
C1866      C1867   1.415       .  A
C1867      C1868   1.405       .  A
C1867      C1874   1.519       .  S
C1868      C1869   1.405       .  A
C1868      H1873   1.085       .  S
C1869      C1870   1.413       .  A
C1870      C1871   1.518       .  S
C1871      F1875   1.383       .  S
C1871      F1876   1.382       .  S
C1871      F1877   1.383       .  S
C1874      F1878   1.384       .  S
C1874      F1879   1.382       .  S
C1874      F1880   1.383       .  S
C1881      C1882   1.404       .  A
C1881      C1886   1.408       .  A
C1881      H1888   1.081       .  S
C1882      C4115   1.424   1_455  A
C1883      C4114   1.424       .  A
C1883      C1884   1.404       .  A
C1883      C1890   1.524       .  S
C1884      C4117   1.400       .  A
C1884      H1889   1.084       .  S
C1885      C4116   1.400       .  A
C1885      C1886   1.416       .  A
C1886      C1887   1.516       .  S
C1887      F1891   1.383       .  S
C1887      F1892   1.384       .  S
C1887      F1893   1.381       .  S
C1890      F1894   1.381       .  S
C1890      F1895   1.383       .  S
C1890      F1896   1.385       .  S
C1897      C4130   1.400       .  A
C1897      C1902   1.404       .  A
C1897      H1904   1.083   1_556  S
C1898      C4129   1.401       .  A
C1898      C1899   1.413       .  A
C1899      C1900   1.404   1_655  A
C1899      C1906   1.517   1_655  S
C1900      C4133   1.401   1_455  A
C1900      H1905   1.083       .  S
C1901      C4132   1.402       .  A
C1901      C1902   1.413       .  A
C1902      C1903   1.517       .  S
C1903      F1907   1.384   1_556  S
C1903      F1908   1.383       .  S
C1903      F1909   1.381       .  S
C1906      F1910   1.383       .  S
C1906      F1911   1.383   1_455  S
C1906      F1912   1.385       .  S
C1913      C1914   1.400   1_556  A
C1913      C1918   1.405       .  A
C1913      H1920   1.083       .  S
C1914      C1915   1.418       .  A
C1915      C1916   1.404   1_554  A
C1915      C1922   1.520       .  S
C1916      C1917   1.398       .  A
C1916      H1921   1.083       .  S
C1917      C1918   1.417       .  A
C1918      C1919   1.519       .  S
C1919      F1923   1.385       .  S
C1919      F1924   1.383       .  S
C1919      F1925   1.382       .  S
C1922      F1926   1.381       .  S
C1922      F1927   1.383       .  S
C1922      F1928   1.385       .  S
C1929      C1930   1.399       .  A
C1929      H1936   1.083       .  S
C1930      C1931   1.416       .  A
C1931      C1938   1.521       .  S
C1932      C1933   1.399   1_566  A
C1932      H1937   1.083       .  S
C1933      C1934   1.419       .  A
C1934      C1935   1.519       .  S
C1935      F1941   1.385       .  S
C1938      F1942   1.379       .  S
C1945      C1946   1.403       .  A
C1945      C1950   1.400       .  A
C1945      H1952   1.084       .  S
C1946      C1947   1.418       .  A
C1947      C1948   1.409       .  A
C1947      C1954   1.514       .  S
C1948      C1949   1.402       .  A
C1948      H1953   1.084       .  S
C1949      C1950   1.416       .  A
C1950      C1951   1.522       .  S
C1951      F1955   1.385       .  S
C1951      F1956   1.381       .  S
C1951      F1957   1.383       .  S
C1954      F1958   1.383       .  S
C1954      F1959   1.382       .  S
C1954      F1960   1.384       .  S
C1961      C1962   1.403       .  A
C1961      C1966   1.402       .  A
C1961      H1968   1.080       .  S
C1962      C4195   1.417       .  A
C1963      C4194   1.417   1_455  A
C1963      C1964   1.405       .  A
C1963      C1970   1.515       .  S
C1964      C1965   1.407       .  A
C1964      H1969   1.079       .  S
C1965      C4198   1.422   1_455  A
C1966      C4197   1.422       .  A
C1966      C1967   1.516       .  S
C1967      F1971   1.383       .  S
C1967      F1972   1.383       .  S
C1967      F1973   1.384       .  S
C1970      F1974   1.384       .  S
C1970      F1975   1.383       .  S
C1970      F1976   1.383       .  S
C1977      C1978   1.396       .  A
C1977      C1982   1.402       .  A
C1977      H1984   1.084       .  S
C1978      C1979   1.412       .  A
C1979      C1986   1.516       .  S
C1980      C1981   1.403   1_545  A
C1980      H1985   1.084       .  S
C1983      F1988   1.382       .  S
C1983      F1989   1.381       .  S
C1986      F1990   1.382       .  S
C1986      F1991   1.382       .  S
C1993      C1994   1.403   1_455  A
C1993      C1998   1.405   1_455  A
C1993      H2000   1.082       .  S
C1994      C1995   1.416       .  A
C1995      C4228   1.403       .  A
C1995      C4234   1.514       .  S
C1996      C4227   1.403       .  A
C1996      C1997   1.404       .  A
C1996      H2001   1.081       .  S
C1997      C4230   1.421       .  A
C1998      C4229   1.421       .  A
C1998      C1999   1.516   1_655  S
C1999      F2003   1.383       .  S
C1999      F4236   1.383   1_455  S
C1999      F2005   1.383       .  S
C2002      C4227   1.514       .  S
C2002      F2006   1.382       .  S
C2002      F4239   1.384       .  S
C2002      F2008   1.384       .  S
F2004      C4231   1.383       .  S
F2007      C4234   1.384   1_455  S
C2009      C2010   1.397       .  A
C2009      C2014   1.406       .  A
C2009      H2016   1.084       .  S
C2010      C2011   1.414       .  A
C2011      C2012   1.404       .  A
C2011      C2018   1.519       .  S
C2012      C2013   1.403       .  A
C2012      H2017   1.083       .  S
C2013      C2014   1.423       .  A
C2014      C2015   1.520       .  S
C2015      F2019   1.385       .  S
C2015      F2020   1.380       .  S
C2015      F2021   1.383       .  S
C2018      F2022   1.381       .  S
C2018      F2023   1.382       .  S
C2018      F2024   1.385       .  S
C2025      C2026   1.402       .  A
C2025      C2030   1.405       .  A
C2025      H2032   1.083       .  S
C2026      C2027   1.411       .  A
C2027      C2028   1.404       .  A
C2027      C2034   1.517       .  S
C2028      C2029   1.403       .  A
C2028      H2033   1.084       .  S
C2029      C2030   1.414       .  A
C2030      C2031   1.518       .  S
C2031      F2035   1.385       .  S
C2031      F2036   1.381       .  S
C2031      F2037   1.383       .  S
C2034      F2038   1.382       .  S
C2034      F2039   1.383       .  S
C2034      F2040   1.385       .  S
C2041      C2042   1.409       .  A
C2041      C2046   1.410       .  A
C2041      H2048   1.084       .  S
C2042      C2043   1.424       .  A
C2043      C2044   1.410       .  A
C2043      C2050   1.519       .  S
C2044      C2045   1.406       .  A
C2044      H2049   1.083       .  S
C2045      C2046   1.422       .  A
C2046      C2047   1.522       .  S
C2047      F2051   1.385       .  S
C2047      F2052   1.379       .  S
C2047      F2053   1.383       .  S
C2050      F2054   1.378       .  S
C2050      F2055   1.382       .  S
C2050      F2056   1.385       .  S
C2057      C2058   1.397       .  A
C2057      C2062   1.403       .  A
C2057      H2064   1.083       .  S
C2058      C2059   1.417       .  A
C2059      C2060   1.404       .  A
C2059      C2066   1.519       .  S
C2060      C2061   1.398       .  A
C2060      H2065   1.083       .  S
C2061      C2062   1.417       .  A
C2062      C2063   1.519       .  S
C2063      F2067   1.385       .  S
C2063      F2068   1.382       .  S
C2063      F2069   1.383       .  S
C2066      F2070   1.383       .  S
C2066      F2071   1.382       .  S
C2066      F2072   1.385       .  S
C2073      C2074   1.403       .  A
C2073      C2078   1.404       .  A
C2073      H2080   1.082       .  S
C2075      C2076   1.403       .  A
C2075      C2082   1.515       .  S
C2076      H2081   1.081       .  S
C2077      C2078   1.421   1_545  A
C2078      C2079   1.516       .  S
C2079      F2083   1.383       .  S
C2079      F2084   1.383       .  S
C2079      F2085   1.384       .  S
C2082      F2086   1.383       .  S
C2082      F2087   1.384       .  S
C2082      F2088   1.384       .  S
C2089      C2090   1.405       .  A
C2089      H2096   1.082       .  S
C2090      C2091   1.422   1_565  A
C2091      C2098   1.523       .  S
C2092      C2093   1.400       .  A
C2092      H2097   1.084       .  S
C2093      C2094   1.416       .  A
C2094      C2095   1.515       .  S
C2095      F2099   1.384       .  S
C2095      F2100   1.382       .  S
C2095      F2101   1.383       .  S
C2098      F2102   1.383   1_545  S
C2098      F2103   1.380       .  S
C2098      F2104   1.385       .  S
C2105      C2106   1.397       .  A
C2105      C2110   1.403       .  A
C2105      H2112   1.083       .  S
C2106      C2107   1.414       .  A
C2107      C2108   1.409       .  A
C2107      C2114   1.516       .  S
C2108      C2109   1.406       .  A
C2108      H2113   1.079       .  S
C2109      C2110   1.428       .  A
C2110      C2111   1.524       .  S
C2111      F2115   1.385       .  S
C2111      F2116   1.379       .  S
C2111      F2117   1.380       .  S
C2114      F2118   1.382       .  S
C2114      F2119   1.384       .  S
C2114      F2120   1.383       .  S
C2121      C2122   1.407       .  A
C2121      C2126   1.410       .  A
C2121      H2128   1.080       .  S
C2122      C4355   1.424   1_455  A
C2123      C4354   1.423       .  A
C2123      C2124   1.400       .  A
C2123      C2130   1.524       .  S
C2124      C2125   1.397       .  A
C2124      H2129   1.082       .  S
C2125      C4358   1.412       .  A
C2126      C4357   1.412       .  A
C2126      C2127   1.516       .  S
C2127      F2131   1.384       .  S
C2127      F2132   1.383       .  S
C2127      F4365   1.381       .  S
C2130      F4366   1.383       .  S
C2130      F2135   1.381       .  S
C2130      F2136   1.385       .  S
F2133      C4359   1.380       .  S
F2134      C4362   1.384       .  S
C2137      C2138   1.402       .  A
C2137      C2142   1.403       .  A
C2137      H2144   1.085       .  S
C2138      C2139   1.409       .  A
C2139      C2140   1.405       .  A
C2139      C2146   1.517       .  S
C2140      C2141   1.407       .  A
C2140      H2145   1.083       .  S
C2141      C2142   1.417       .  A
C2142      C2143   1.519       .  S
C2143      F2147   1.384       .  S
C2143      F2148   1.381       .  S
C2143      F2149   1.383       .  S
C2146      F2150   1.383       .  S
C2146      F2151   1.382       .  S
C2146      F2152   1.385       .  S
C2153      C2154   1.405       .  A
C2153      C2158   1.404       .  A
C2153      H2160   1.079       .  S
C2154      C2155   1.420       .  A
C2155      C2156   1.402       .  A
C2155      C2162   1.515       .  S
C2156      C2157   1.404       .  A
C2156      H2161   1.080       .  S
C2157      C2158   1.420       .  A
C2158      C2159   1.516       .  S
C2159      F2163   1.384       .  S
C2159      F2164   1.383       .  S
C2159      F2165   1.384       .  S
C2162      F2166   1.383       .  S
C2162      F2167   1.383       .  S
C2162      F2168   1.384       .  S
C2169      C4402   1.407       .  A
C2169      C2174   1.410       .  A
C2169      H2176   1.083       .  S
C2170      C4401   1.407   1_455  A
C2170      C2171   1.421       .  A
C2171      C2172   1.411   1_455  A
C2171      C2178   1.519       .  S
C2172      C4405   1.407       .  A
C2172      H2177   1.083       .  S
C2173      C4404   1.407       .  A
C2173      C2174   1.418       .  A
C2174      C2175   1.518       .  S
C2175      F2179   1.385       .  S
C2175      F2180   1.383       .  S
C2175      F2181   1.380       .  S
C2178      F2182   1.382       .  S
C2178      F2183   1.378       .  S
C2178      F2184   1.385       .  S
C2185      C2186   1.402       .  A
C2185      C2190   1.408       .  A
C2185      H2192   1.083       .  S
C2186      C2187   1.420       .  A
C2187      C2188   1.407       .  A
C2187      C2194   1.519       .  S
C2188      C2189   1.399       .  A
C2188      H2193   1.084       .  S
C2189      C2190   1.417       .  A
C2190      C2191   1.519       .  S
C2191      F2195   1.385       .  S
C2191      F2196   1.382       .  S
C2191      F2197   1.381       .  S
C2194      F2198   1.385       .  S
C2194      F2199   1.384       .  S
C2194      F2200   1.381       .  S
C2201      C2202   1.403       .  A
C2201      C2206   1.405       .  A
C2201      H2208   1.083       .  S
C2202      C2203   1.410       .  A
C2203      C2204   1.404       .  A
C2203      C2210   1.516       .  S
C2204      C2205   1.404       .  A
C2204      H2209   1.083       .  S
C2205      C2206   1.413       .  A
C2206      C2207   1.517       .  S
C2207      F2211   1.385       .  S
C2207      F2212   1.383       .  S
C2207      F2213   1.381       .  S
C2210      F2214   1.383       .  S
C2210      F2215   1.382       .  S
C2210      F2216   1.385       .  S
C2217      C2218   1.404       .  A
C2217      C2222   1.409       .  A
C2217      H2224   1.083       .  S
C2218      C2219   1.416       .  A
C2219      C2220   1.400       .  A
C2220      C2221   1.404       .  A
C2220      H2225   1.084       .  S
C2221      C2222   1.416       .  A
C2222      C2223   1.515       .  S
C2223      F2227   1.384       .  S
C2223      F2228   1.382       .  S
C2223      F2229   1.381       .  S
C2226      F2231   1.382       .  S
C2226      F2232   1.385       .  S
N2233      N2234   1.328       .  A
N2233      C2237   1.349       .  A
N2233     Cu2241   2.100       .  S
N2234      C2235   1.348       .  A
N2234     Cu3356   2.093       .  S
C2235      C2236   1.382       .  A
C2235      H2238   1.082       .  S
C2236      C2237   1.383       .  A
C2236      N2271   1.443       .  S
C2237      H2239   1.082       .  S
Cu2240     N3350   2.099   1_545  S
Cu2240     N2243   2.097       .  S
Cu2242     N2244   2.072       .  S
Cu2242     N2250   2.072   1_545  S
N2243      C2247   1.352       .  A
N2244      C2245   1.345       .  A
C2245      C2246   1.381       .  A
C2245      H2248   1.082       .  S
C2246      N2264   1.441       .  S
C2247      H2249   1.082       .  S
N2250      N3367   1.323       .  A
N2250      C2254   1.342       .  A
N2251      N3366   1.322       .  A
N2251      C2252   1.353       .  A
C2252      C2253   1.390       .  A
C2252      H2255   1.081       .  S
C2253      C3370   1.379       .  A
C2253      N2257   1.442       .  S
C2254      C3369   1.379       .  A
C2254      H2256   1.080   1_565  S
N2257      C2261   1.353       .  A
N2257      C3374   1.355       .  A
C2258      N3373   1.354       .  A
C2258      C3375   1.382       .  A
C2258      C3334   1.476       .  S
C2259      C3374   1.383       .  A
C2259      C2260   1.377       .  A
C2259      H2262   1.082       .  S
C2260      C2261   1.381       .  A
C2260      H2263   1.082       .  S
C2261      C3318   1.471       .  S
N2264      C2268   1.364       .  A
N2264      C2265   1.362       .  A
C2265      C2266   1.388       .  A
C2265      C3286   1.497       .  S
C2266      C2267   1.366       .  A
C2266      H2269   1.083       .  S
C2267      C2268   1.377       .  A
C2267      H2270   1.081       .  S
C2268      C3302   1.482       .  S
N2271      C2275   1.359       .  A
N2271      C2272   1.364       .  A
C2272      C2273   1.390       .  A
C2272      C3270   1.495       .  S
C2273      C2274   1.366       .  A
C2273      H2276   1.080       .  S
C2274      C2275   1.375       .  A
C2274      H2277   1.082       .  S
C2275      C3257   1.472       .  S
N2278      N2279   1.326       .  A
N2278      C2282   1.345       .  A
N2278     Cu2286   2.087       .  S
N2279      C2280   1.351       .  A
N2279     Cu2285   2.095       .  S
C2280      C2281   1.385       .  A
C2280      H2283   1.081       .  S
C2281      C2282   1.381       .  A
C2281      N2316   1.439       .  S
C2282      H2284   1.082       .  S
Cu2285     N2288   2.095       .  S
Cu2286     N2296   2.086       .  S
Cu2287     N2289   2.065       .  S
Cu2287     N2295   2.064       .  S
N2288      N2289   1.323       .  A
N2288      C2292   1.348       .  A
N2289      C2290   1.346       .  A
C2290      C2291   1.379       .  A
C2290      H2293   1.080       .  S
C2291      C2292   1.385       .  A
C2291      N2309   1.439       .  S
C2292      H2294   1.080       .  S
N2295      N2296   1.322       .  A
N2295      C2299   1.341       .  A
N2296      C2297   1.351       .  A
C2297      C2298   1.386       .  A
C2297      H2300   1.081       .  S
C2298      C2299   1.378       .  A
C2298      N2302   1.436       .  S
C2299      H2301   1.082       .  S
N2302      C2306   1.351       .  A
N2302      C2303   1.352       .  A
C2303      C2304   1.384       .  A
C2303      C3238   1.481       .  S
C2304      C2305   1.378       .  A
C2304      H2307   1.082       .  S
C2305      C2306   1.381       .  A
C2305      H2308   1.082       .  S
C2306      C3321   1.472       .  S
N2309      C2313   1.356       .  A
N2309      C2310   1.356       .  A
C2310      C2311   1.386       .  A
C2310      C3222   1.479       .  S
C2311      C2312   1.377       .  A
C2311      H2314   1.082       .  S
C2312      C2313   1.378       .  A
C2312      H2315   1.082       .  S
C2313      C3305   1.479       .  S
N2316      C2320   1.351       .  A
N2316      C2317   1.352       .  A
C2317      C2318   1.384       .  A
C2317      C3206   1.477       .  S
C2318      C2319   1.377       .  A
C2318      H2321   1.082       .  S
C2319      C2320   1.381       .  A
C2319      H2322   1.082       .  S
C2320      C3254   1.470       .  S
N2323      N2324   1.326       .  A
N2323      C2327   1.353       .  A
N2323     Cu2331   2.105       .  S
N2324      C2325   1.346       .  A
N2324     Cu3446   2.083   1_545  S
C2325      C2326   1.381       .  A
C2325      H2328   1.082       .  S
C2326      C2327   1.388       .  A
C2326      N2354   1.442       .  S
C2327      H2329   1.082       .  S
Cu2330     N3440   2.084       .  S
Cu2330     N2333   2.083       .  S
Cu2332     N2334   2.095       .  S
Cu2332     N2340   2.095       .  S
N2333      C2337   1.348       .  A
N2334      C2335   1.349       .  A
C2335      C2336   1.385       .  A
C2335      H2338   1.081       .  S
C2336      N2361   1.443       .  S
C2337      H2339   1.082       .  S
N2340      N3457   1.325       .  A
N2340      C2344   1.350       .  A
N2341      N3456   1.326   1_545  A
N2341      C2342   1.349       .  A
C2342      C2343   1.388       .  A
C2342      H2345   1.082       .  S
C2343      C3460   1.381   1_545  A
C2343      N2347   1.446       .  S
C2344      C3459   1.384       .  A
C2344      H2346   1.082       .  S
N2347      C2351   1.359       .  A
N2347      C2348   1.364       .  A
C2348      C2349   1.388       .  A
C2348      C4309   1.492       .  S
C2349      C2350   1.367       .  A
C2349      H2352   1.080       .  S
C2350      C2351   1.376       .  A
C2350      H2353   1.082       .  S
C2351      C3177   1.474       .  S
N2354      C2358   1.366       .  A
N2354      C2355   1.366       .  A
C2355      C2356   1.386       .  A
C2355      C3161   1.496       .  S
C2356      C2357   1.366       .  A
C2356      H2359   1.083       .  S
C2357      C2358   1.378       .  A
C2357      H2360   1.082       .  S
C2358      C3145   1.486       .  S
N2361      C2365   1.361       .  A
N2361      C2362   1.366       .  A
C2362      C2363   1.388       .  A
C2362      C3113   1.499       .  S
C2363      C2364   1.368       .  A
C2363      H2366   1.080       .  S
C2364      C2365   1.376       .  A
C2364      H2367   1.082       .  S
C2365      C3129   1.480       .  S
N2368      N2369   1.324       .  A
N2368      C2372   1.343       .  A
N2368     Cu2376   2.083       .  S
N2369      C2370   1.352       .  A
N2369     Cu2375   2.080       .  S
C2370      C2371   1.382       .  A
C2370      H2373   1.082       .  S
C2371      C2372   1.379       .  A
C2371      N2392   1.435       .  S
C2372      H2374   1.082       .  S
Cu2375     N2378   2.082       .  S
Cu2376     N2386   2.083       .  S
Cu2377     N2379   2.090       .  S
Cu2377     N2385   2.089       .  S
N2378      N2379   1.325       .  A
N2378      C2382   1.344       .  A
N2379      C2380   1.348       .  A
C2380      C2381   1.387       .  A
C2380      H2383   1.079       .  S
C2381      C2382   1.382       .  A
C2381      N2406   1.442       .  S
C2382      H2384   1.079       .  S
N2385      N2386   1.323       .  A
N2385      C2389   1.352       .  A
N2386      C2387   1.345       .  A
C2387      C2388   1.384       .  A
C2387      H2390   1.080       .  S
C2388      C2389   1.386       .  A
C2388      N2399   1.446       .  S
C2389      H2391   1.082       .  S
N2392      C2396   1.357       .  A
N2392      C2393   1.358   1_545  A
C2393      C2394   1.387       .  A
C2393      C3094   1.489       .  S
C2394      C2395   1.375       .  A
C2394      H2397   1.083       .  S
C2395      C2396   1.380   1_565  A
C2395      H2398   1.081       .  S
C2396      C3142   1.488       .  S
N2399      C2403   1.359       .  A
N2399      C2400   1.365   1_655  A
C2400      C2401   1.391       .  A
C2400      C3078   1.498       .  S
C2401      C2402   1.368       .  A
C2402      C2403   1.373   1_455  A
C2402      H2405   1.082       .  S
C2403      C3174   1.472       .  S
N2406      C2410   1.354       .  A
N2406      C2407   1.357       .  A
C2407      C2408   1.387       .  A
C2407      C3062   1.478       .  S
C2408      C2409   1.376       .  A
C2408      H2411   1.082       .  S
C2409      C2410   1.378       .  A
C2409      H2412   1.082       .  S
C2410      C3126   1.475       .  S
N2413      N2414   1.324       .  A
N2413      C2417   1.347       .  A
N2413     Cu2421   2.077       .  S
N2414      C2415   1.349       .  A
N2414     Cu2420   2.095       .  S
C2415      C2416   1.386       .  A
C2415      H2418   1.082       .  S
C2416      C2417   1.381       .  A
C2416      N2437   1.443       .  S
C2417      H2419   1.082       .  S
Cu2420     N2423   2.095       .  S
Cu2421     N2431   2.078       .  S
Cu2422     N2424   2.098       .  S
Cu2422     N2430   2.098       .  S
N2423      N2424   1.327       .  A
N2423      C2427   1.349       .  A
N2424      C2425   1.350       .  A
C2425      C2426   1.384       .  A
C2425      H2428   1.081       .  S
C2426      C2427   1.383       .  A
C2426      N2451   1.444       .  S
C2427      H2429   1.082       .  S
N2430      N2431   1.325       .  A
N2430      C2434   1.352       .  A
N2431      C2432   1.345       .  A
C2432      C2433   1.381       .  A
C2432      H2435   1.082       .  S
C2433      C2434   1.386       .  A
C2433      N2444   1.441       .  S
C2434      H2436   1.082       .  S
N2437      C2441   1.358       .  A
N2437      C2438   1.360       .  A
C2438      C3555   1.388       .  A
C2438      C3190   1.489       .  S
C2439      C3554   1.388       .  A
C2439      C2440   1.369       .  A
C2439      H2442   1.081       .  S
C2440      C3557   1.377       .  A
C2440      H2443   1.082       .  S
C2441      C3556   1.377       .  A
C2441      C3049   1.473       .  S
N2444      C2448   1.362       .  A
N2444      C2445   1.365       .  A
C2445      C2446   1.388       .  A
C2445      C3158   1.498       .  S
C2446      C2447   1.364       .  A
C2446      H2449   1.083       .  S
C2447      C2448   1.376       .  A
C2447      H2450   1.082       .  S
C2448      C3030   1.478       .  S
N2451      C2455   1.360       .  A
N2451      C2452   1.364       .  A
C2452      C3110   1.494       .  S
C2453      C2454   1.370       .  A
C2453      H2456   1.081       .  S
C2454      H2457   1.082       .  S
C2455      C3014   1.475       .  S
N2458      N2459   1.326       .  A
N2458      C2462   1.342       .  A
N2458     Cu2466   2.077       .  S
N2459      C2460   1.355       .  A
N2459     Cu2465   2.109       .  S
C2460      C2461   1.389       .  A
C2460      H2463   1.082       .  S
C2461      C2462   1.379       .  A
C2461      N2482   1.442       .  S
C2462      H2464   1.081       .  S
Cu2465     N2468   2.109       .  S
Cu2466     N2476   2.076       .  S
Cu2467     N2469   2.073       .  S
Cu2467     N2475   2.072       .  S
N2468      N2469   1.325       .  A
N2468      C2472   1.354       .  A
N2469      C2470   1.341       .  A
C2470      C2471   1.378       .  A
C2470      H2473   1.081       .  S
C2471      C2472   1.390       .  A
C2471      N2496   1.440       .  S
C2472      H2474   1.080       .  S
N2475      N2476   1.321       .  A
N2475      C2479   1.347       .  A
N2476      C2477   1.347       .  A
C2477      C2478   1.384       .  A
C2477      H2480   1.082       .  S
C2478      C2479   1.383       .  A
C2478      N2489   1.440       .  S
C2479      H2481   1.081       .  S
N2482      C2486   1.362       .  A
N2482      C2483   1.364       .  A
C2483      C3289   1.497       .  S
C2484      C2485   1.364       .  A
C2484      H2487   1.083       .  S
C2485      H2488   1.082       .  S
C2486      C3017   1.474       .  S
N2489      C2493   1.357       .  A
N2489      C2490   1.359       .  A
C2490      C2491   1.388       .  A
C2490      C3273   1.492       .  S
C2491      C2492   1.372       .  A
C2491      H2494   1.081       .  S
C2492      C2493   1.377       .  A
C2492      H2495   1.082       .  S
C2493      C3033   1.476       .  S
N2496      C2500   1.351       .  A
N2496      C2497   1.357       .  A
C2497      C2498   1.389       .  A
C2497      C3337   1.480       .  S
C2498      C3615   1.374       .  A
C2498      H3617   1.082   1_545  S
C2499      C3614   1.373       .  A
C2499      C3616   1.376       .  A
C2499      H2502   1.082       .  S
C2500      C3615   1.377       .  A
C2500      C3046   1.471       .  S
H2501      C3614   1.082       .  S
N2503      N2504   1.323       .  A
N2503      C2507   1.347       .  A
N2503     Cu2511   2.093       .  S
N2504      C2505   1.347       .  A
C2505      C2506   1.380       .  A
C2505      H2508   1.082       .  S
C2506      C2507   1.386       .  A
C2506      N2541   1.441       .  S
C2507      H2509   1.081       .  S
Cu2510     N2513   2.064       .  S
Cu2511     N3637   2.093       .  S
Cu2512     N2514   2.083       .  S
Cu2512     N2520   2.084       .  S
N2513      N3630   1.323       .  A
N2513      C2517   1.341       .  A
N2514      N3629   1.324   1_545  A
N2514      C2515   1.352       .  A
C2515      C2516   1.383       .  A
C2515      H2518   1.082       .  S
C2516      C3633   1.376   1_545  A
C2516      N2534   1.435       .  S
C2517      C3632   1.376       .  A
C2517      H2519   1.080       .  S
N2520      C2524   1.343       .  A
N2521      C2522   1.349       .  A
N2521     Cu3627   2.084   1_545  S
C2522      C2523   1.385       .  A
C2522      H2525   1.081       .  S
C2523      N2527   1.438       .  S
C2524      H2526   1.081       .  S
N2527      C2531   1.353       .  A
C2528      C2998   1.485       .  S
C2529      C2530   1.376   1_455  A
C2529      H2532   1.082       .  S
C2530      C2531   1.380       .  A
C2530      H2533   1.082       .  S
C2531      C2982   1.476       .  S
N2534      C2538   1.351       .  A
N2534      C2535   1.351   1_545  A
C2535      C2536   1.384       .  A
C2535      C2950   1.476       .  S
C2536      C2537   1.380   1_565  A
C2536      H2539   1.082       .  S
C2537      C2538   1.381       .  A
C2537      H2540   1.082       .  S
C2538      C2966   1.478       .  S
N2541      C2545   1.358       .  A
N2541      C2542   1.355       .  A
C2542      C2543   1.382       .  A
C2542      C2934   1.480       .  S
C2543      C2544   1.376       .  A
C2543      H2546   1.082       .  S
C2544      C2545   1.382       .  A
C2544      H2547   1.082       .  S
C2545      C2918   1.482       .  S
N2548      N2549   1.325       .  A
N2548      C2552   1.343       .  A
N2548     Cu2556   2.080       .  S
N2549      C2550   1.350       .  A
N2549     Cu2555   2.083       .  S
C2550      C2551   1.382       .  A
C2550      H2553   1.080       .  S
C2551      C2552   1.378       .  A
C2551      N2586   1.437       .  S
C2552      H2554   1.080       .  S
Cu2555     N2558   2.084       .  S
Cu2556     N2566   2.079       .  S
Cu2557     N2559   2.082       .  S
Cu2557     N2565   2.082       .  S
N2558      N2559   1.323       .  A
N2558      C2562   1.344       .  A
N2559      C2560   1.350       .  A
C2560      C2561   1.386       .  A
C2560      H2563   1.081       .  S
C2561      C2562   1.384       .  A
C2561      N2572   1.440       .  S
C2562      H2564   1.081       .  S
N2565      N2566   1.323       .  A
N2565      C2569   1.343       .  A
N2566      C2567   1.350       .  A
C2567      C2568   1.385       .  A
C2567      H2570   1.081       .  S
C2568      C2569   1.382       .  A
C2568      N2579   1.443       .  S
C2569      H2571   1.079       .  S
N2572      C2576   1.355       .  A
N2572      C2573   1.360       .  A
C2573      C2574   1.385       .  A
C2573      C3225   1.490       .  S
C2574      C2575   1.375       .  A
C2574      H2577   1.081       .  S
C2575      C2576   1.379       .  A
C2575      H2578   1.082       .  S
C2576      C2969   1.478       .  S
N2579      C2583   1.354       .  A
N2579      C2580   1.354   1_545  A
C2580      C2581   1.383       .  A
C2580      C3209   1.474       .  S
C2581      C2582   1.378       .  A
C2581      H2584   1.082       .  S
C2582      C2583   1.381   1_565  A
C2582      H2585   1.082       .  S
C2583      C2985   1.473       .  S
N2586      C2590   1.352       .  A
N2586      C2587   1.356       .  A
C2587      C2588   1.387   1_655  A
C2587      C3241   1.479       .  S
C2588      C2589   1.377       .  A
C2588      H2591   1.082       .  S
C2589      C2590   1.378   1_455  A
C2589      H2592   1.082       .  S
C2590      C2921   1.476       .  S
N2593      N2594   1.326       .  A
N2593      C2597   1.343       .  A
N2593     Cu2601   2.087       .  S
N2594      C2595   1.352       .  A
C2595      C2596   1.384       .  A
C2595      H2598   1.081       .  S
C2596      C2597   1.383       .  A
C2596      N2624   1.440       .  S
C2597      H2599   1.082       .  S
Cu2600     N2603   2.089   1_455  S
Cu2601     N3727   2.085   1_545  S
Cu2602     N2604   2.086       .  S
Cu2602     N2610   2.085   1_655  S
N2603      N3720   1.325   1_545  A
N2603      C2607   1.352       .  A
N2604      N3719   1.326       .  A
N2604      C2605   1.345       .  A
C2605      C2606   1.381       .  A
C2605      H2608   1.082       .  S
C2606      C3723   1.384       .  A
C2606      N2631   1.440       .  S
C2607      C3722   1.385   1_545  A
C2607      H2609   1.082       .  S
N2610      C2614   1.345       .  A
N2611      C2612   1.350       .  A
N2611     Cu3717   2.075       .  S
C2612      C2613   1.384       .  A
C2612      H2615   1.082       .  S
C2613      N2617   1.441       .  S
C2614      H2616   1.080       .  S
N2617      C2621   1.358       .  A
N2617      C2618   1.357       .  A
C2618      C2619   1.382       .  A
C2618      C2902   1.481       .  S
C2619      C2620   1.375       .  A
C2619      H2622   1.082       .  S
C2620      C2621   1.381       .  A
C2620      H2623   1.082       .  S
C2621      C2886   1.480       .  S
N2624      C2628   1.353       .  A
N2624      C2625   1.361       .  A
C2625      C2626   1.388       .  A
C2625      C2870   1.503       .  S
C2626      C2627   1.377       .  A
C2626      H2629   1.078       .  S
C2627      C2628   1.377       .  A
C2627      H2630   1.082       .  S
C2628      C2854   1.480       .  S
N2631      C2635   1.361       .  A
N2631      C2632   1.361       .  A
C2632      C2633   1.387       .  A
C2632      C2841   1.488       .  S
C2633      C2634   1.364       .  A
C2633      H2636   1.083       .  S
C2634      C2635   1.377       .  A
C2634      H2637   1.082       .  S
C2635      C2822   1.476       .  S
N2638      N2639   1.324       .  A
N2638      C2642   1.352       .  A
N2638     Cu2646   2.102       .  S
N2639      C2640   1.345       .  A
N2639     Cu2645   2.069       .  S
C2640      C2641   1.380       .  A
C2640      H2643   1.082       .  S
C2641      C2642   1.388       .  A
C2641      N2676   1.444       .  S
C2642      H2644   1.082       .  S
Cu2645     N2648   2.069       .  S
Cu2646     N2656   2.102       .  S
Cu2647     N2649   2.093       .  S
Cu2647     N2655   2.095       .  S
N2648      N2649   1.323       .  A
N2648      C2652   1.342       .  A
N2649      C2650   1.353       .  A
C2650      C2651   1.387       .  A
C2650      H2653   1.081       .  S
C2651      C2652   1.378       .  A
C2651      N2669   1.440       .  S
C2652      H2654   1.081       .  S
N2655      N2656   1.327       .  A
N2655      C2659   1.345       .  A
N2656      C2657   1.353       .  A
C2657      C2658   1.386       .  A
C2657      H2660   1.081       .  S
C2658      C2659   1.382       .  A
C2658      N2662   1.442       .  S
C2659      H2661   1.082       .  S
N2662      C2666   1.355       .  A
N2662      C2663   1.361       .  A
C2663      C2664   1.385       .  A
C2663      C3097   1.493       .  S
C2664      C2665   1.373       .  A
C2664      H3783   1.080       .  S
C2665      C2666   1.378       .  A
C2665      H2668   1.082       .  S
C2666      C2889   1.476       .  S
H2667      C3780   1.082       .  S
N2669      C2673   1.355       .  A
N2669      C2670   1.355       .  A
C2670      C2671   1.382       .  A
C2670      C3065   1.478       .  S
C2671      C2672   1.376       .  A
C2671      H2674   1.082       .  S
C2672      C2673   1.381       .  A
C2672      H2675   1.082       .  S
C2673      C2825   1.474       .  S
N2676      C2680   1.362       .  A
N2676      C2677   1.364       .  A
C2677      C2678   1.389       .  A
C2677      C3081   1.499       .  S
C2678      C2679   1.369       .  A
C2678      H2681   1.080       .  S
C2679      C2680   1.376       .  A
C2679      H2682   1.081       .  S
C2680      C2857   1.483       .  S
N2683      N2684   1.325       .  A
N2683      C2687   1.349       .  A
N2683     Cu2691   2.091       .  S
N2684      C2685   1.344       .  A
N2684     Cu2690   2.067       .  S
C2685      C2686   1.378       .  A
C2685      H2688   1.082       .  S
C2686      C2687   1.385       .  A
C2686      N2721   1.437       .  S
C2687      H2689   1.082       .  S
Cu2690     N2693   2.066       .  S
Cu2691     N2701   2.091       .  S
Cu2692     N2694   2.070       .  S
Cu2692     N2700   2.072       .  S
N2693      N2694   1.321       .  A
N2693      C2697   1.342       .  A
N2694      C2695   1.347       .  A
C2695      C2696   1.386       .  A
C2695      H2698   1.081       .  S
C2696      C2697   1.382       .  A
C2696      N2714   1.441       .  S
C2697      H2699   1.081       .  S
N2700      N2701   1.324       .  A
N2700      C2704   1.340       .  A
N2701      C2702   1.352       .  A
C2702      C2703   1.386       .  A
C2702      H2705   1.081       .  S
C2703      C2704   1.379       .  A
C2703      N2707   1.436       .  S
C2704      H2706   1.080       .  S
N2707      C2711   1.352       .  A
N2707      C2708   1.359       .  A
C2708      C2905   1.490   1_655  S
C2709      C2710   1.375       .  A
C2709      H2712   1.083       .  S
C2710      H2713   1.082       .  S
C2711      C2806   1.479       .  S
N2714      C2718   1.353       .  A
N2714      C2715   1.353       .  A
C2715      C2716   1.383       .  A
C2715      C2873   1.477       .  S
C2716      C2717   1.379       .  A
C2716      H2719   1.082       .  S
C2717      C2718   1.381       .  A
C2717      H2720   1.082       .  S
C2718      C2790   1.475       .  S
N2721      C2725   1.363       .  A
N2721      C2722   1.360       .  A
C2722      C3839   1.386   1_545  A
C2722      C2838   1.489       .  S
C2723      C3838   1.385       .  A
C2723      C2724   1.368       .  A
C2723      H2726   1.083       .  S
C2724      C3841   1.378       .  A
C2724      H2727   1.082       .  S
C2725      C3840   1.378   1_545  A
C2725      C2777   1.483       .  S
N2728      N2729   1.324       .  A
N2728      C2732   1.346       .  A
N2728     Cu2736   2.077       .  S
N2729      C2730   1.349       .  A
N2729     Cu2735   2.102       .  S
C2730      C2731   1.388       .  A
C2730      H2733   1.079       .  S
C2731      C2732   1.384       .  A
C2731      N2766   1.445       .  S
C2732      H2734   1.078       .  S
Cu2735     N2738   2.101       .  S
Cu2736     N2746   2.076       .  S
Cu2737     N2739   2.062       .  S
Cu2737     N2745   2.061       .  S
N2738      N2739   1.324       .  A
N2738      C2742   1.353       .  A
N2739      C2740   1.339       .  A
C2740      C2741   1.377       .  A
C2740      H2743   1.081       .  S
C2741      C2742   1.389       .  A
C2741      N2759   1.437       .  S
C2742      H2744   1.080       .  S
N2745      N2746   1.321       .  A
N2745      C2749   1.348       .  A
N2746      C2747   1.344       .  A
C2747      C2748   1.382       .  A
C2747      H2750   1.082       .  S
C2748      C2749   1.380       .  A
C2748      N2752   1.435       .  S
C2749      H2751   1.081       .  S
N2752      C2756   1.354       .  A
N2752      C2753   1.352       .  A
C2753      C3870   1.384       .  A
C2753      C2953   1.485       .  S
C2754      C3869   1.384   1_545  A
C2754      C2755   1.380       .  A
C2754      H2757   1.081       .  S
C2755      C3872   1.382       .  A
C2755      H2758   1.082       .  S
C2756      C3871   1.382       .  A
C2756      C2774   1.482       .  S
N2759      C2763   1.353       .  A
N2759      C2760   1.360       .  A
C2760      C2761   1.391       .  A
C2760      C2937   1.490       .  S
C2761      C2762   1.374       .  A
C2761      H2764   1.083       .  S
C2762      C2763   1.376       .  A
C2762      H2765   1.082       .  S
C2763      C2793   1.475       .  S
N2766      C2770   1.357       .  A
N2766      C2767   1.356       .  A
C2767      C2768   1.386       .  A
C2767      C3001   1.478       .  S
C2768      C2769   1.376       .  A
C2769      C2770   1.379       .  A
C2770      C2809   1.477       .  S
C2773      C2774   1.402       .  A
C2773      C2778   1.406       .  A
C2773      H2780   1.081       .  S
C2774      C3891   1.413       .  A
C2775      C3890   1.411   1_565  A
C2775      C2776   1.408   1_565  A
C2775      C2782   1.517       .  S
C2776      C2777   1.407       .  A
C2776      H2781   1.083   1_545  S
C2777      C3894   1.417       .  A
C2778      C3893   1.417       .  A
C2778      C2779   1.520       .  S
C2779      F2783   1.385       .  S
C2779      F3900   1.379       .  S
C2779      F2785   1.383       .  S
C2782      F2786   1.382       .  S
C2782      F3903   1.384       .  S
C2782      F2788   1.384       .  S
F2784      C3895   1.378       .  S
F2787      C3898   1.384       .  S
C2789      C2790   1.398       .  A
C2789      C2794   1.404       .  A
C2789      H2796   1.085       .  S
C2790      C2791   1.417       .  A
C2791      C2792   1.404       .  A
C2791      C2798   1.518       .  S
C2792      C2793   1.400       .  A
C2792      H2797   1.083       .  S
C2793      C2794   1.421       .  A
C2794      C2795   1.521       .  S
C2795      F2799   1.384       .  S
C2795      F2800   1.382       .  S
C2795      F2801   1.380       .  S
C2798      F2802   1.383       .  S
C2798      F2803   1.385       .  S
C2798      F2804   1.381       .  S
C2805      C2810   1.406       .  A
C2805      H2812   1.083       .  S
C2806      C2807   1.413       .  A
C2807      C2814   1.517       .  S
C2808      C2809   1.404       .  A
C2808      H2813   1.083       .  S
C2809      C2810   1.410       .  A
C2810      C2811   1.516       .  S
C2811      F2815   1.384       .  S
C2811      F2816   1.383       .  S
C2811      F2817   1.383       .  S
C2814      F2818   1.383       .  S
C2814      F2819   1.382       .  S
C2814      F2820   1.384       .  S
C2821      C2822   1.404       .  A
C2821      C2826   1.405       .  A
C2821      H2828   1.083       .  S
C2822      C2823   1.416       .  A
C2823      C2824   1.406       .  A
C2823      C2830   1.519       .  S
C2824      C2825   1.401       .  A
C2824      H2829   1.083       .  S
C2825      C2826   1.412       .  A
C2826      C2827   1.517       .  S
C2827      F2831   1.384       .  S
C2827      F2832   1.382       .  S
C2827      F2833   1.383       .  S
C2830      F2834   1.380       .  S
C2830      F2835   1.383       .  S
C2830      F2836   1.385       .  S
C2837      C3954   1.406       .  A
C2837      C2842   1.409       .  A
C2837      H2844   1.083       .  S
C2838      C3953   1.406       .  A
C2838      C2839   1.422       .  A
C2839      C2840   1.411       .  A
C2839      C2846   1.521       .  S
C2840      C3957   1.406       .  A
C2840      H2845   1.083       .  S
C2841      C3956   1.406       .  A
C2841      C2842   1.416       .  A
C2842      C2843   1.517       .  S
C2843      F2847   1.385       .  S
C2843      F2848   1.380       .  S
C2843      F2849   1.382       .  S
C2846      F2850   1.379       .  S
C2846      F2851   1.382       .  S
C2846      F2852   1.385       .  S
C2853      C2854   1.399       .  A
C2853      C2858   1.408       .  A
C2853      H2860   1.083       .  S
C2854      C2855   1.418       .  A
C2855      C2856   1.404       .  A
C2855      C2862   1.515       .  S
C2856      C2857   1.398       .  A
C2856      H2861   1.083       .  S
C2857      C2858   1.422       .  A
C2858      C2859   1.520       .  S
C2859      F2863   1.385       .  S
C2859      F2864   1.383       .  S
C2859      F2865   1.381       .  S
C2862      F2866   1.381       .  S
C2862      F2867   1.382       .  S
C2862      F2868   1.384       .  S
C2869      C2870   1.410       .  A
C2869      C2874   1.408       .  A
C2869      H2876   1.076       .  S
C2870      C2871   1.432       .  A
C2871      C2872   1.403       .  A
C2871      C2878   1.524       .  S
C2872      C2873   1.395       .  A
C2872      H2877   1.082       .  S
C2873      C2874   1.411       .  A
C2874      C2875   1.517       .  S
C2875      F2879   1.383       .  S
C2875      F2880   1.382       .  S
C2875      F2881   1.383       .  S
C2878      F2882   1.377       .  S
C2878      F2883   1.381       .  S
C2878      F2884   1.385       .  S
C2885      C2886   1.400       .  A
C2885      C2890   1.407       .  A
C2885      H2892   1.083       .  S
C2886      C2887   1.420       .  A
C2887      C2888   1.405       .  A
C2887      C2894   1.518       .  S
C2888      C2889   1.397       .  A
C2888      H2893   1.083       .  S
C2889      C2890   1.417       .  A
C2890      C2891   1.516       .  S
C2891      F2895   1.385       .  S
C2891      F2896   1.382       .  S
C2891      F2897   1.383       .  S
C2894      F2898   1.381       .  S
C2894      F2899   1.380       .  S
C2894      F2900   1.385       .  S
C2901      C2906   1.409   1_455  A
C2901      H2908   1.083   1_455  S
C2902      C2903   1.416       .  A
C2903      C2904   1.401       .  A
C2903      C2910   1.519       .  S
C2904      H2909   1.083       .  S
C2905      C2906   1.418   1_455  A
C2906      C2907   1.511       .  S
C2907      F2911   1.384       .  S
C2907      F2912   1.380       .  S
C2907      F2913   1.382       .  S
C2910      F2914   1.381       .  S
C2910      F2915   1.381       .  S
C2910      F2916   1.385       .  S
C2917      C2918   1.401       .  A
C2917      C2922   1.408       .  A
C2917      H2924   1.083       .  S
C2918      C2919   1.421       .  A
C2919      C2920   1.406       .  A
C2919      C2926   1.518       .  S
C2920      C2921   1.396       .  A
C2920      H2925   1.083       .  S
C2921      C2922   1.417       .  A
C2922      C2923   1.519       .  S
C2923      F2927   1.382       .  S
C2923      F2928   1.381       .  S
C2923      F2929   1.385       .  S
C2926      F2930   1.385       .  S
C2926      F2931   1.379       .  S
C2926      F2932   1.381       .  S
C2933      C2934   1.402       .  A
C2933      C2938   1.410       .  A
C2933      H2940   1.084       .  S
C2934      C2935   1.415       .  A
C2935      C2936   1.399       .  A
C2935      C2942   1.518       .  S
C2936      C2937   1.405       .  A
C2936      H2941   1.082       .  S
C2937      C2938   1.419       .  A
C2938      C2939   1.512       .  S
C2939      F2943   1.384       .  S
C2939      F2944   1.382       .  S
C2939      F2945   1.381       .  S
C2942      F2946   1.382       .  S
C2942      F2947   1.380       .  S
C2942      F2948   1.385       .  S
C2949      C2950   1.399   1_545  A
C2949      C2954   1.401       .  A
C2949      H2956   1.083       .  S
C2950      C4067   1.415       .  A
C2951      C4066   1.416       .  A
C2951      C2952   1.412       .  A
C2951      C2958   1.516       .  S
C2952      C2953   1.407       .  A
C2952      H2957   1.083       .  S
C2953      C4070   1.420       .  A
C2954      C4069   1.422   1_545  A
C2954      C2955   1.523       .  S
C2955      F2959   1.385       .  S
C2955      F2960   1.380       .  S
C2955      F2961   1.382       .  S
C2958      F2962   1.383       .  S
C2958      F2963   1.382       .  S
C2958      F2964   1.384       .  S
C2965      C2966   1.398       .  A
C2965      C2970   1.406       .  A
C2965      H2972   1.083       .  S
C2966      C2967   1.419       .  A
C2967      C2968   1.407       .  A
C2967      C2974   1.518       .  S
C2968      C2969   1.398       .  A
C2968      H2973   1.083       .  S
C2969      C2970   1.418       .  A
C2970      C2971   1.515       .  S
C2971      F2975   1.385       .  S
C2971      F2976   1.382       .  S
C2971      F2977   1.382       .  S
C2974      F2978   1.383       .  S
C2974      F2979   1.381       .  S
C2974      F2980   1.384       .  S
C2981      C2982   1.404       .  A
C2981      C2986   1.405       .  A
C2981      H2988   1.083       .  S
C2982      C2983   1.412       .  A
C2983      C2984   1.406       .  A
C2983      C2990   1.517       .  S
C2984      C2985   1.404       .  A
C2984      H2989   1.083       .  S
C2985      C2986   1.410       .  A
C2986      C2987   1.516       .  S
C2987      F2991   1.382       .  S
C2987      F2992   1.383   1_545  S
C2987      F2993   1.384       .  S
C2990      F2994   1.382   1_655  S
C2990      F2995   1.383   1_655  S
C2990      F2996   1.385       .  S
C2997      C2998   1.404       .  A
C2997      C3002   1.410       .  A
C2997      H3004   1.082       .  S
C2999      C3000   1.402       .  A
C2999      C3006   1.524       .  S
C3000      H3005   1.084       .  S
C3001      C3002   1.416       .  A
C3002      C3003   1.516       .  S
C3003      F3007   1.384       .  S
C3003      F3008   1.383       .  S
C3003      F3009   1.382       .  S
C3006      F3010   1.380       .  S
C3006      F3011   1.383       .  S
C3006      F3012   1.385       .  S
C3013      C3018   1.406   1_554  A
C3013      H3020   1.083       .  S
C3014      C3015   1.413   1_554  A
C3015      C3016   1.405       .  A
C3015      C3022   1.517       .  S
C3016      H3021   1.083       .  S
C3017      C3018   1.412       .  A
C3018      C3019   1.517       .  S
C3019      F3023   1.384   1_556  S
C3019      F3024   1.383       .  S
C3019      F3025   1.382       .  S
C3022      F3026   1.381       .  S
C3022      F3027   1.383       .  S
C3022      F3028   1.384       .  S
C3029      C3030   1.401   1_556  A
C3029      C3034   1.408       .  A
C3029      H3036   1.083       .  S
C3030      C3031   1.418       .  A
C3031      C3032   1.404   1_554  A
C3031      C3038   1.519       .  S
C3032      C3033   1.398       .  A
C3032      H3037   1.083       .  S
C3033      C3034   1.418       .  A
C3034      C3035   1.519       .  S
C3035      F3039   1.384       .  S
C3035      F3040   1.383       .  S
C3035      F3041   1.382       .  S
C3038      F3042   1.381       .  S
C3038      F3043   1.383       .  S
C3038      F3044   1.385       .  S
C3045      C3046   1.398       .  A
C3045      C4166   1.404   1_556  A
C3045      H3052   1.083   1_556  S
C3046      C3047   1.417   1_545  A
C3047      C4164   1.405       .  A
C3047      C3054   1.520       .  S
C3048      C4163   1.402       .  A
C3048      C3049   1.399   1_556  A
C3048      H3053   1.083       .  S
C3049      C3050   1.417       .  A
C3050      C4161   1.404   1_554  A
C3050      C3051   1.519       .  S
C3051      F4171   1.381       .  S
C3051      F4172   1.383       .  S
C3051      F3057   1.385       .  S
C3054      F3058   1.381       .  S
C3054      F4175   1.383       .  S
C3054      F4176   1.384       .  S
F3055      C4167   1.381       .  S
F3056      C4167   1.384       .  S
F3059      C4170   1.382       .  S
F3060      C4170   1.385       .  S
C3061      C3062   1.402       .  A
C3061      C3066   1.399       .  A
C3061      H3068   1.084       .  S
C3062      C3063   1.417       .  A
C3063      C3064   1.410       .  A
C3063      C3070   1.515       .  S
C3064      C3065   1.404       .  A
C3064      H3069   1.083       .  S
C3065      C3066   1.415       .  A
C3066      C3067   1.521       .  S
C3067      F3071   1.385       .  S
C3067      F3072   1.381       .  S
C3067      F3073   1.383       .  S
C3070      F3074   1.383       .  S
C3070      F3075   1.382       .  S
C3070      F3076   1.384       .  S
C3077      C3078   1.405   1_655  A
C3077      C3082   1.404       .  A
C3077      H3084   1.078       .  S
C3079      C3080   1.404       .  A
C3079      C3086   1.517       .  S
C3080      C3081   1.405       .  A
C3080      H3085   1.079       .  S
C3082      C3083   1.515       .  S
C3083      F3087   1.384       .  S
C3083      F3088   1.383       .  S
C3083      F3089   1.383       .  S
C3086      F3090   1.384       .  S
C3086      F3091   1.383       .  S
C3086      F3092   1.383       .  S
C3093      C3094   1.403       .  A
C3093      C3098   1.399       .  A
C3093      H3100   1.083       .  S
C3094      C3095   1.421   1_565  A
C3095      C4212   1.413       .  A
C3095      C3102   1.514       .  S
C3096      C4211   1.411       .  A
C3096      C3097   1.406       .  A
C3096      H3101   1.079       .  S
C3097      C4214   1.427       .  A
C3098      C4213   1.415       .  A
C3098      C4215   1.519       .  S
C3099      C4214   1.524       .  S
C3099      F4219   1.385       .  S
C3099      F3104   1.380       .  S
C3099      F3105   1.381       .  S
C3102      F3106   1.383       .  S
C3102      F3107   1.380       .  S
C3102      F4224   1.384       .  S
F3103      C4215   1.385       .  S
F3108      C4218   1.384       .  S
C3109      C3110   1.403       .  A
C3109      C3114   1.406       .  A
C3109      H3116   1.082       .  S
C3110      C3111   1.419       .  A
C3112      C3113   1.405       .  A
C3112      H3117   1.081       .  S
C3114      C3115   1.515       .  S
C3115      F3119   1.383       .  S
C3115      F3121   1.384       .  S
C3118      F3122   1.382       .  S
C3118      F3124   1.384       .  S
C3125      C3126   1.398       .  A
C3125      C3130   1.405       .  A
C3125      H3132   1.083       .  S
C3126      C3127   1.418       .  A
C3127      C3128   1.409       .  A
C3127      C3134   1.521       .  S
C3128      C3129   1.402       .  A
C3128      H3133   1.083       .  S
C3129      C3130   1.418       .  A
C3130      C3131   1.520       .  S
C3131      F3135   1.385       .  S
C3131      F3136   1.381       .  S
C3131      F3137   1.384       .  S
C3134      F3138   1.381       .  S
C3134      F3139   1.383       .  S
C3134      F3140   1.384       .  S
C3141      C3142   1.404       .  A
C3141      C3146   1.410       .  A
C3141      H3148   1.083       .  S
C3142      C3143   1.416       .  A
C3143      C3144   1.409       .  A
C3143      C3150   1.520       .  S
C3144      C3145   1.406       .  A
C3144      H3149   1.083       .  S
C3145      C3146   1.417       .  A
C3146      C3147   1.518       .  S
C3147      F3151   1.385       .  S
C3147      F3152   1.380       .  S
C3147      F3153   1.383       .  S
C3150      F3154   1.380   1_545  S
C3150      F3155   1.383       .  S
C3150      F3156   1.385       .  S
C3157      C3158   1.408       .  A
C3157      C3162   1.411       .  A
C3157      H3164   1.083       .  S
C3158      C3159   1.421       .  A
C3159      C3160   1.412       .  A
C3159      C3166   1.519       .  S
C3160      C3161   1.409       .  A
C3160      H3165   1.083       .  S
C3161      C3162   1.421       .  A
C3162      C3163   1.521       .  S
C3163      F3167   1.385       .  S
C3163      F3168   1.377       .  S
C3163      F3169   1.383       .  S
C3166      F3170   1.380       .  S
C3166      F3171   1.382       .  S
C3166      F3172   1.385       .  S
C3173      C3174   1.398       .  A
C3173      C3178   1.403       .  A
C3173      H3180   1.084       .  S
C3174      C3175   1.416       .  A
C3175      C3176   1.403       .  A
C3175      C3182   1.519       .  S
C3176      C3177   1.400       .  A
C3176      H3181   1.083       .  S
C3177      C3178   1.417       .  A
C3178      C3179   1.519       .  S
C3179      F3183   1.385       .  S
C3179      F3184   1.381       .  S
C3179      F3185   1.384       .  S
C3182      F3186   1.383       .  S
C3182      F3187   1.382       .  S
C3182      F3188   1.385       .  S
C3189      C3190   1.403       .  A
C3189      C3194   1.403       .  A
C3189      H3196   1.081       .  S
C3190      C4307   1.418       .  A
C3191      C4306   1.419   1_545  A
C3191      C3192   1.404       .  A
C3191      C3198   1.515       .  S
C3192      C4309   1.403       .  A
C3192      H3197   1.081       .  S
C3193      C4308   1.405       .  A
C3193      C3194   1.418       .  A
C3193      C3464   1.490       .  S
C3194      C3195   1.514       .  S
C3195      F3199   1.383       .  S
C3195      F3200   1.383       .  S
C3195      F3201   1.384       .  S
C3198      F3202   1.383       .  S
C3198      F3203   1.384   1_545  S
C3198      F3204   1.383   1_545  S
C3205      C3206   1.403       .  A
C3205      C4326   1.408       .  A
C3205      H3212   1.083       .  S
C3206      C3207   1.420       .  A
C3207      C4324   1.398       .  A
C3207      C3214   1.523       .  S
C3208      C4323   1.400   1_565  A
C3208      C3209   1.399       .  A
C3208      H3213   1.084   1_565  S
C3209      C3210   1.414       .  A
C3210      C4321   1.407       .  A
C3210      C3211   1.517       .  S
C3211      F3215   1.384       .  S
C3211      F3216   1.382       .  S
C3211      F3217   1.383       .  S
C3214      F3218   1.381       .  S
C3214      F3219   1.381       .  S
C3214      F3220   1.385       .  S
C3221      C3222   1.398       .  A
C3221      C3226   1.399       .  A
C3221      H3228   1.081       .  S
C3222      C3223   1.415       .  A
C3223      C3224   1.412       .  A
C3223      C3230   1.516       .  S
C3224      C3225   1.407       .  A
C3224      H3229   1.080       .  S
C3225      C3226   1.423       .  A
C3226      C3227   1.523       .  S
C3227      F3231   1.385       .  S
C3227      F3232   1.378       .  S
C3227      F3233   1.381       .  S
C3230      F3234   1.382       .  S
C3230      F3235   1.383       .  S
C3230      F3236   1.384       .  S
C3237      C3238   1.404       .  A
C3237      C3242   1.411       .  A
C3237      H3244   1.081       .  S
C3239      C3240   1.400       .  A
C3239      C3246   1.522       .  S
C3240      C3241   1.400       .  A
C3240      H3245   1.084       .  S
C3242      C3243   1.515       .  S
C3243      F3247   1.385       .  S
C3243      F3248   1.383       .  S
C3246      F3251   1.380       .  S
C3246      F3252   1.385       .  S
C3253      C3254   1.401       .  A
C3253      C3258   1.401       .  A
C3253      H3260   1.083       .  S
C3254      C3255   1.408       .  A
C3255      C3256   1.404       .  A
C3255      C3262   1.517       .  S
C3256      C3257   1.408       .  A
C3256      H3261   1.084       .  S
C3257      C3258   1.415       .  A
C3258      C3259   1.518       .  S
C3259      F3263   1.384       .  S
C3259      F3264   1.380       .  S
C3259      F3265   1.383       .  S
C3262      F3266   1.383       .  S
C3262      F3267   1.382       .  S
C3262      F3268   1.385       .  S
C3269      C3270   1.406       .  A
C3269      C3274   1.402       .  A
C3269      H3276   1.078       .  S
C3270      C3271   1.420       .  A
C3271      C3272   1.403       .  A
C3271      C3278   1.517       .  S
C3272      C3273   1.405       .  A
C3272      H3277   1.080       .  S
C3273      C3274   1.417       .  A
C3274      C3275   1.515       .  S
C3275      F3279   1.384       .  S
C3275      F3280   1.384       .  S
C3275      F3281   1.383       .  S
C3278      F3282   1.384       .  S
C3278      F3283   1.384       .  S
C3278      F3284   1.383       .  S
C3285      C3290   1.410       .  A
C3285      H3292   1.083       .  S
C3286      C3287   1.423       .  A
C3287      C3288   1.410       .  A
C3287      C3294   1.523       .  S
C3288      H3293   1.084       .  S
C3289      C3290   1.422       .  A
C3290      C3291   1.519       .  S
C3291      F3295   1.385       .  S
C3291      F3296   1.382       .  S
C3291      F3297   1.379       .  S
C3294      F3298   1.382       .  S
C3294      F3299   1.378       .  S
C3294      F3300   1.385       .  S
C3301      C3302   1.398       .  A
C3301      C3306   1.404       .  A
C3301      H3308   1.085       .  S
C3302      C3303   1.421       .  A
C3303      C3304   1.407       .  A
C3303      C3310   1.521       .  S
C3304      C3305   1.400       .  A
C3304      H3309   1.084       .  S
C3305      C3306   1.422       .  A
C3306      C3307   1.517       .  S
C3307      F3311   1.383       .  S
C3307      F3312   1.377       .  S
C3307      F3313   1.384       .  S
C3310      F3314   1.385       .  S
C3310      F3315   1.383       .  S
C3310      F3316   1.381       .  S
C3317      C3318   1.404       .  A
C3317      C3322   1.405       .  A
C3317      H3324   1.083       .  S
C3318      C3319   1.410       .  A
C3319      C3320   1.403       .  A
C3319      C3326   1.517       .  S
C3320      C3321   1.403       .  A
C3320      H3325   1.082       .  S
C3321      C3322   1.411       .  A
C3322      C3323   1.517       .  S
C3323      F3327   1.385       .  S
C3323      F3328   1.383       .  S
C3323      F3329   1.382       .  S
C3326      F3330   1.383       .  S
C3326      F3331   1.382       .  S
C3326      F3332   1.385       .  S
C3333      C3334   1.402   1_545  A
C3333      C3338   1.408       .  A
C3333      H3340   1.084       .  S
C3334      C3335   1.415       .  A
C3335      C3336   1.399       .  A
C3335      C4458   1.522       .  S
C3336      C3337   1.404   1_565  A
C3336      H3341   1.083       .  S
C3337      C3338   1.417       .  A
C3338      C3339   1.513       .  S
C3339      F3343   1.384       .  S
C3339      F3344   1.383       .  S
C3339      F3345   1.379       .  S
C3342      C4451   1.522       .  S
C3342      F4462   1.382       .  S
C3342      F3347   1.382       .  S
C3342      F3348   1.385       .  S
F3346      C4458   1.382       .  S
N3349      N3350   1.328       .  A
N3349      C3353   1.349       .  A
N3349     Cu3357   2.095       .  S
N3350      C3351   1.348       .  A
C3351      C3352   1.383       .  A
C3351      H3354   1.082       .  S
C3352      C3353   1.382       .  A
C3352      N3387   1.443       .  S
C3353      H3355   1.082       .  S
Cu3356     N3359   2.090   1_655  S
Cu3358     N3360   2.065       .  S
Cu3358     N3366   2.065       .  S
N3359      C3363   1.352       .  A
N3360      C3361   1.342       .  A
C3361      C3362   1.379       .  A
C3361      H3364   1.082       .  S
C3362      N3380   1.438       .  S
C3363      H3365   1.082   1_455  S
N3366      C3370   1.341       .  A
N3367      C3368   1.353       .  A
C3368      C3369   1.387       .  A
C3368      H3371   1.081       .  S
C3369      N3373   1.441       .  S
C3370      H3372   1.079       .  S
N3373      C3377   1.353       .  A
C3374      C4450   1.478       .  S
C3375      C3376   1.376       .  A
C3375      H3378   1.082       .  S
C3376      C3377   1.382       .  A
C3376      H3379   1.082       .  S
C3377      C4434   1.471       .  S
N3380      C3384   1.363       .  A
N3380      C3381   1.362       .  A
C3381      C3382   1.387       .  A
C3381      C4402   1.495       .  S
C3382      C3383   1.367       .  A
C3382      H3385   1.083       .  S
C3383      C3384   1.378       .  A
C3383      H3386   1.082       .  S
C3384      C4418   1.485       .  S
N3387      C3391   1.360       .  A
N3387      C3388   1.364       .  A
C3388      C3389   1.389       .  A
C3388      C4386   1.494       .  S
C3389      C3390   1.367       .  A
C3389      H3392   1.080       .  S
C3390      C3391   1.376       .  A
C3390      H3393   1.082       .  S
C3391      C4373   1.476       .  S
N3394      N3395   1.325       .  A
N3394      C3398   1.344       .  A
N3394     Cu3402   2.089       .  S
N3395      C3396   1.350       .  A
N3395     Cu3401   2.083       .  S
C3396      C3397   1.382       .  A
C3396      H3399   1.082       .  S
C3397      C3398   1.381       .  A
C3397      N3432   1.437       .  S
C3398      H3400   1.082       .  S
Cu3401     N3404   2.083       .  S
Cu3402     N3412   2.088       .  S
Cu3403     N3405   2.068       .  S
Cu3403     N3411   2.068       .  S
N3404      N3405   1.323       .  A
N3404      C3408   1.345       .  A
N3405      C3406   1.347       .  A
C3406      C3407   1.381       .  A
C3406      H3409   1.080       .  S
C3407      C3408   1.384       .  A
C3407      N3425   1.439       .  S
C3408      H3410   1.081       .  S
N3411      N3412   1.323       .  A
N3411      C3415   1.341       .  A
N3412      C3413   1.352       .  A
C3413      C3414   1.385       .  A
C3413      H3416   1.082       .  S
C3414      C3415   1.378       .  A
C3414      N3418   1.436       .  S
C3415      H3417   1.082       .  S
N3418      C3422   1.351       .  A
N3418      C3419   1.354       .  A
C3419      C3420   1.385       .  A
C3419      C4354   1.485       .  S
C3420      C3421   1.376       .  A
C3420      H3423   1.081       .  S
C3421      C3422   1.380       .  A
C3421      H3424   1.082       .  S
C3422      C4437   1.474       .  S
N3425      C3429   1.355       .  A
N3425      C3426   1.355       .  A
C3426      C3427   1.384       .  A
C3426      C4338   1.479       .  S
C3427      C3428   1.378       .  A
C3427      H3430   1.082       .  S
C3428      C3429   1.380       .  A
C3428      H3431   1.082       .  S
C3429      C4421   1.479       .  S
N3432      C3436   1.351       .  A
N3432      C3433   1.352       .  A
C3433      C3434   1.385   1_565  A
C3433      C4322   1.484       .  S
C3434      C3435   1.378       .  A
C3434      H3437   1.081       .  S
C3435      C3436   1.380   1_545  A
C3435      H3438   1.082       .  S
C3436      C4370   1.472       .  S
N3439      N3440   1.325       .  A
N3439      C3443   1.350       .  A
N3439     Cu3447   2.086       .  S
N3440      C3441   1.346       .  A
C3441      C3442   1.383       .  A
C3441      H3444   1.081       .  S
C3442      C3443   1.383       .  A
C3442      N3470   1.439       .  S
C3443      H3445   1.082       .  S
Cu3446     N3449   2.083       .  S
Cu3448     N3450   2.081       .  S
Cu3448     N3456   2.082       .  S
N3449      C3453   1.348       .  A
N3450      C3451   1.347       .  A
C3451      C3452   1.383       .  A
C3451      H3454   1.082       .  S
C3452      N3477   1.442       .  S
C3453      H3455   1.082       .  S
N3456      C3460   1.349       .  A
N3457      C3458   1.347       .  A
C3458      C3459   1.382       .  A
C3458      H3461   1.081       .  S
C3459      N3463   1.443       .  S
C3460      H3462   1.082       .  S
N3463      C3467   1.357       .  A
N3463      C3464   1.361       .  A
C3464      C3465   1.389       .  A
C3465      C3466   1.369       .  A
C3465      H3468   1.081       .  S
C3466      C3467   1.376       .  A
C3466      H3469   1.082       .  S
C3467      C4293   1.473       .  S
N3470      C3474   1.360       .  A
N3470      C3471   1.362       .  A
C3471      C3472   1.388       .  A
C3471      C4277   1.494       .  S
C3472      C3473   1.366       .  A
C3472      H3475   1.083       .  S
C3473      C3474   1.376       .  A
C3473      H3476   1.082       .  S
C3474      C4261   1.474       .  S
N3477      C3481   1.361       .  A
N3477      C3478   1.361       .  A
C3478      C3479   1.386       .  A
C3478      C4229   1.493       .  S
C3479      C3480   1.370       .  A
C3479      H3482   1.081       .  S
C3480      C3481   1.379       .  A
C3480      H3483   1.080       .  S
C3481      C4245   1.484       .  S
N3484      N3485   1.323       .  A
N3484      C3488   1.343       .  A
N3484     Cu3492   2.069       .  S
N3485      C3486   1.353       .  A
N3485     Cu3491   2.096       .  S
C3486      C3487   1.387       .  A
C3486      H3489   1.081       .  S
C3487      C3488   1.377       .  A
C3487      N3508   1.439       .  S
C3488      H3490   1.080       .  S
Cu3491     N3494   2.098       .  S
Cu3492     N3502   2.069       .  S
Cu3493     N3495   2.094       .  S
Cu3493     N3501   2.092       .  S
N3494      N3495   1.326       .  A
N3494      C3498   1.347       .  A
N3495      C3496   1.350       .  A
C3496      C3497   1.385       .  A
C3496      H3499   1.080       .  S
C3497      C3498   1.383       .  A
C3497      N3522   1.442       .  S
C3498      H3500   1.079       .  S
N3501      N3502   1.323       .  A
N3501      C3505   1.351       .  A
N3502      C3503   1.344       .  A
C3503      C3504   1.381       .  A
C3503      H3506   1.080       .  S
C3504      C3505   1.386       .  A
C3504      N3515   1.442       .  S
C3505      H3507   1.082       .  S
N3508      C3512   1.352       .  A
N3508      C3509   1.355       .  A
C3509      C3510   1.384       .  A
C3509      C4210   1.477       .  S
C3510      C3511   1.377       .  A
C3510      H3513   1.082       .  S
C3511      C3512   1.379       .  A
C3511      H3514   1.082       .  S
C3512      C4258   1.472       .  S
N3515      C3519   1.357       .  A
N3515      C3516   1.360       .  A
C3516      C3517   1.390   1_655  A
C3516      C4194   1.493       .  S
C3517      C3518   1.371       .  A
C3518      C3519   1.375   1_455  A
C3518      H3521   1.082       .  S
C3519      C4290   1.472       .  S
N3522      C3526   1.354       .  A
N3522      C3523   1.358       .  A
C3523      C3524   1.386       .  A
C3523      C4178   1.479       .  S
C3524      C3525   1.375       .  A
C3524      H3527   1.082       .  S
C3525      C3526   1.378       .  A
C3525      H3528   1.082       .  S
C3526      C4242   1.472       .  S
N3529      N3530   1.323       .  A
N3529      C3533   1.349       .  A
N3529     Cu3537   2.085       .  S
N3530      C3531   1.346       .  A
N3530     Cu3536   2.078       .  S
C3531      C3532   1.384       .  A
C3531      H3534   1.081       .  S
C3532      C3533   1.384       .  A
C3532      N3553   1.443       .  S
C3533      H3535   1.082       .  S
Cu3536     N3539   2.078       .  S
Cu3537     N3547   2.086       .  S
Cu3538     N3540   2.100       .  S
Cu3538     N3546   2.099       .  S
N3539      N3540   1.326       .  A
N3539      C3543   1.347       .  A
N3540      C3541   1.350       .  A
C3541      C3542   1.385       .  A
C3541      H3544   1.081       .  S
C3542      C3543   1.378       .  A
C3542      N3567   1.440       .  S
C3543      H3545   1.082       .  S
N3546      N3547   1.326       .  A
N3546      C3550   1.354       .  A
N3547      C3548   1.344       .  A
C3548      C3549   1.382       .  A
C3548      H3551   1.081       .  S
C3549      C3550   1.386       .  A
C3549      N3560   1.442       .  S
C3550      H3552   1.082       .  S
N3553      C3557   1.359   1_565  A
N3553      C3554   1.361   1_565  A
C3554      C4306   1.491   1_545  S
C3555      C3556   1.369       .  A
C3555      H3558   1.081       .  S
C3556      H3559   1.082       .  S
C3557      C4165   1.475       .  S
N3560      C3564   1.362       .  A
N3560      C3561   1.366       .  A
C3561      C3562   1.391       .  A
C3561      C4274   1.500       .  S
C3562      C3563   1.363       .  A
C3562      H3565   1.083       .  S
C3563      C3564   1.374       .  A
C3563      H3566   1.082       .  S
C3564      C4146   1.475       .  S
N3567      C3571   1.356       .  A
N3567      C3568   1.360       .  A
C3568      C4226   1.490       .  S
C3569      C3570   1.370       .  A
C3569      H3572   1.081       .  S
C3570      H3573   1.082   1_554  S
C3571      C4130   1.470   1_554  S
N3574      N3575   1.325       .  A
N3574      C3578   1.342       .  A
N3574     Cu3582   2.085       .  S
N3575      C3576   1.354       .  A
N3575     Cu3581   2.093       .  S
C3576      C3577   1.386       .  A
C3576      H3579   1.082       .  S
C3577      C3578   1.382       .  A
C3577      N3598   1.442       .  S
C3578      H3580   1.080       .  S
Cu3581     N3584   2.094       .  S
Cu3582     N3592   2.084       .  S
Cu3583     N3585   2.088       .  S
Cu3583     N3591   2.088       .  S
N3584      N3585   1.325       .  A
N3584      C3588   1.350       .  A
N3585      C3586   1.345       .  A
C3586      C3587   1.382       .  A
C3586      H3589   1.081       .  S
C3587      C3588   1.386       .  A
C3587      N3612   1.441       .  S
C3588      H3590   1.079       .  S
N3591      N3592   1.322       .  A
N3591      C3595   1.349       .  A
N3592      C3593   1.349       .  A
C3593      C3594   1.385       .  A
C3593      H3596   1.082       .  S
C3594      C3595   1.386       .  A
C3594      N3605   1.446       .  S
C3595      H3597   1.081       .  S
N3598      C3602   1.360       .  A
N3598      C3599   1.363       .  A
C3599      C4405   1.492       .  S
C3600      C3601   1.366       .  A
C3600      H3603   1.083       .  S
C3601      H3604   1.082       .  S
C3602      C4133   1.471       .  S
N3605      C3609   1.359       .  A
N3605      C3606   1.364       .  A
C3606      C3607   1.388       .  A
C3606      C4389   1.492       .  S
C3607      C3608   1.368       .  A
C3607      H3610   1.081       .  S
C3608      C3609   1.376       .  A
C3608      H3611   1.082       .  S
C3609      C4149   1.473       .  S
N3612      C3616   1.352       .  A
N3612      C3613   1.357       .  A
C3613      C3614   1.388       .  A
C3613      C4453   1.479       .  S
C3615      H3618   1.082   1_545  S
C3616      C4162   1.469       .  S
N3619      N3620   1.323       .  A
N3619      C3623   1.344       .  A
N3619     Cu3627   2.084       .  S
N3620      C3621   1.348       .  A
C3621      C3622   1.382       .  A
C3621      H3624   1.082       .  S
C3622      C3623   1.384       .  A
C3622      N3657   1.441       .  S
C3623      H3625   1.080       .  S
Cu3626     N3629   2.072       .  S
Cu3628     N3630   2.090       .  S
Cu3628     N3636   2.091       .  S
N3629      C3633   1.341       .  A
N3630      C3631   1.353       .  A
C3631      C3632   1.386       .  A
C3631      H3634   1.082       .  S
C3632      N3650   1.437       .  S
C3633      H3635   1.080       .  S
N3636      C3640   1.344       .  A
N3637      C3638   1.351       .  A
C3638      C3639   1.387       .  A
C3638      H3641   1.081       .  S
C3639      N3643   1.441       .  S
C3640      H3642   1.081       .  S
N3643      C3647   1.353       .  A
C3644      C4114   1.489       .  S
C3645      C3646   1.377   1_455  A
C3645      H3648   1.081       .  S
C3646      C3647   1.380       .  A
C3646      H3649   1.082       .  S
C3647      C4098   1.473       .  S
N3650      C3654   1.351       .  A
N3650      C3651   1.353       .  A
C3651      C3652   1.386       .  A
C3651      C4066   1.478       .  S
C3652      C3653   1.379       .  A
C3652      H3655   1.082       .  S
C3653      C3654   1.380       .  A
C3653      H3656   1.082       .  S
C3654      C4082   1.475       .  S
N3657      C3661   1.356       .  A
N3657      C3658   1.354       .  A
C3658      C3659   1.382       .  A
C3658      C4050   1.476       .  S
C3659      C3660   1.377       .  A
C3659      H3662   1.082       .  S
C3660      C3661   1.382       .  A
C3660      H3663   1.082       .  S
C3661      C4034   1.477       .  S
N3664      N3665   1.325       .  A
N3664      C3668   1.344       .  A
N3664     Cu3672   2.082       .  S
N3665      C3666   1.351       .  A
N3665     Cu3671   2.086       .  S
C3666      C3667   1.384       .  A
C3666      H3669   1.081       .  S
C3667      C3668   1.380       .  A
C3667      N3702   1.439       .  S
C3668      H3670   1.079       .  S
Cu3671     N3674   2.086       .  S
Cu3672     N3682   2.081       .  S
Cu3673     N3675   2.083       .  S
Cu3673     N3681   2.084       .  S
N3674      N3675   1.323       .  A
N3674      C3678   1.344       .  A
N3675      C3676   1.350       .  A
C3676      C3677   1.386       .  A
C3676      H3679   1.081       .  S
C3677      C3678   1.385       .  A
C3677      N3688   1.441       .  S
C3678      H3680   1.082       .  S
N3681      N3682   1.324       .  A
N3681      C3685   1.344       .  A
N3682      C3683   1.350       .  A
C3683      C3684   1.385       .  A
C3683      H3686   1.081       .  S
C3684      C3685   1.381       .  A
C3684      N3695   1.441       .  S
C3685      H3687   1.078       .  S
N3688      C3692   1.353       .  A
N3688      C3689   1.360       .  A
C3689      C3690   1.386       .  A
C3689      C4341   1.496       .  S
C3690      C3691   1.376       .  A
C3690      H3693   1.080       .  S
C3691      C3692   1.378       .  A
C3691      H3694   1.082       .  S
C3692      C4085   1.477       .  S
N3695      C3699   1.353       .  A
N3695      C3696   1.354       .  A
C3696      C3697   1.387       .  A
C3696      C4325   1.475       .  S
C3697      C3698   1.377       .  A
C3697      H3700   1.082       .  S
C3698      C3699   1.379       .  A
C3698      H3701   1.082       .  S
C3699      C4101   1.472       .  S
N3702      C3706   1.352       .  A
N3702      C3703   1.354   1_655  A
C3703      C3704   1.385       .  A
C3703      C4357   1.477       .  S
C3704      C3705   1.378       .  A
C3704      H3707   1.082       .  S
C3705      C3706   1.380   1_455  A
C3705      H3708   1.082       .  S
C3706      C4037   1.475       .  S
N3709      N3710   1.325       .  A
N3709      C3713   1.341       .  A
N3709     Cu3717   2.077       .  S
N3710      C3711   1.352       .  A
C3711      C3712   1.386       .  A
C3711      H3714   1.081       .  S
C3712      C3713   1.379       .  A
C3712      N3740   1.439       .  S
C3713      H3715   1.082       .  S
Cu3716     N3719   2.092   1_455  S
Cu3718     N3720   2.082       .  S
Cu3718     N3726   2.081   1_655  S
N3719      C3723   1.351       .  A
N3720      C3721   1.344       .  A
C3721      C3722   1.381       .  A
C3721      H3724   1.082       .  S
C3722      N3747   1.441       .  S
C3723      H3725   1.082       .  S
N3726      C3730   1.344       .  A
N3727      C3728   1.351       .  A
C3728      C3729   1.387       .  A
C3728      H3731   1.082       .  S
C3729      N3733   1.440       .  S
C3730      H3732   1.081   1_455  S
N3733      C3737   1.357       .  A
N3733      C3734   1.361       .  A
C3734      C3735   1.385       .  A
C3734      C4018   1.493       .  S
C3735      C3736   1.374       .  A
C3735      H3738   1.081       .  S
C3736      C3737   1.379       .  A
C3736      H3739   1.082       .  S
C3737      C4002   1.481       .  S
N3740      C3744   1.353       .  A
N3740      C3741   1.359       .  A
C3741      C3742   1.386       .  A
C3741      C3986   1.493       .  S
C3742      C3743   1.376       .  A
C3742      H3745   1.080       .  S
C3743      C3744   1.378       .  A
C3743      H3746   1.082       .  S
C3744      C3970   1.476       .  S
N3747      C3751   1.360       .  A
N3747      C3748   1.361       .  A
C3748      C3749   1.388       .  A
C3748      C3957   1.487   1_565  S
C3749      C3750   1.364       .  A
C3749      H3752   1.083       .  S
C3750      C3751   1.376       .  A
C3750      H3753   1.082       .  S
C3751      C3938   1.472       .  S
N3754      N3755   1.323       .  A
N3754      C3758   1.351       .  A
N3754     Cu3762   2.089       .  S
N3755      C3756   1.343       .  A
N3755     Cu3761   2.066       .  S
C3756      C3757   1.380       .  A
C3756      H3759   1.081       .  S
C3757      C3758   1.387       .  A
C3757      N3792   1.442       .  S
C3758      H3760   1.082       .  S
Cu3761     N3764   2.065       .  S
Cu3762     N3772   2.090       .  S
Cu3763     N3765   2.104       .  S
Cu3763     N3771   2.106       .  S
N3764      N3765   1.323       .  A
N3764      C3768   1.342       .  A
N3765      C3766   1.355       .  A
C3766      C3767   1.389       .  A
C3766      H3769   1.081       .  S
C3767      C3768   1.377       .  A
C3767      N3785   1.440       .  S
C3768      H3770   1.082       .  S
N3771      N3772   1.329       .  A
N3771      C3775   1.348       .  A
N3772      C3773   1.350       .  A
C3773      C3774   1.380       .  A
C3773      H3776   1.082       .  S
C3774      C3775   1.382       .  A
C3774      N3778   1.440       .  S
C3775      H3777   1.082       .  S
N3778      C3782   1.359       .  A
N3778      C3779   1.355       .  A
C3779      C3780   1.382   1_565  A
C3779      C4213   1.483       .  S
C3780      C3781   1.378       .  A
C3781      C3782   1.384   1_545  A
C3781      H3784   1.081       .  S
C3782      C4005   1.488       .  S
N3785      C3789   1.355       .  A
N3785      C3786   1.354       .  A
C3786      C3787   1.381       .  A
C3786      C4181   1.476       .  S
C3787      C3788   1.374       .  A
C3787      H3790   1.082       .  S
C3788      C3789   1.382       .  A
C3788      H3791   1.082       .  S
C3789      C3941   1.473       .  S
N3792      C3796   1.360       .  A
N3792      C3793   1.363       .  A
C3793      C3794   1.390       .  A
C3793      C4197   1.497       .  S
C3794      C3795   1.369       .  A
C3794      H3797   1.080       .  S
C3795      C3796   1.375       .  A
C3795      H3798   1.081       .  S
C3796      C3973   1.479       .  S
N3799      N3800   1.323       .  A
N3799      C3803   1.351       .  A
N3799     Cu3807   2.088       .  S
N3800      C3801   1.343       .  A
N3800     Cu3806   2.067       .  S
C3801      C3802   1.379       .  A
C3801      H3804   1.082       .  S
C3802      C3803   1.386       .  A
C3802      N3837   1.438       .  S
C3803      H3805   1.082       .  S
Cu3806     N3809   2.066       .  S
Cu3807     N3817   2.090       .  S
Cu3808     N3810   2.089       .  S
Cu3808     N3816   2.092       .  S
N3809      N3810   1.321       .  A
N3809      C3813   1.339       .  A
N3810      C3811   1.355       .  A
C3811      C3812   1.389       .  A
C3811      H3814   1.082       .  S
C3812      C3813   1.378       .  A
C3812      N3830   1.442       .  S
C3813      H3815   1.079       .  S
N3816      N3817   1.327       .  A
N3816      C3820   1.343       .  A
N3817      C3818   1.350       .  A
C3818      C3819   1.383       .  A
C3818      H3821   1.081       .  S
C3819      C3820   1.380       .  A
C3819      N3823   1.438       .  S
C3820      H3822   1.079       .  S
N3823      C3827   1.352   1_655  A
N3823      C3824   1.354   1_655  A
C3824      C4021   1.478       .  S
C3825      C3826   1.377       .  A
C3825      H3828   1.082       .  S
C3826      H3829   1.082       .  S
C3827      C3922   1.475   1_455  S
N3830      C3834   1.353       .  A
N3830      C3831   1.354       .  A
C3831      C3832   1.384       .  A
C3831      C3989   1.474       .  S
C3832      C3833   1.377       .  A
C3832      H3835   1.082       .  S
C3833      C3834   1.381       .  A
C3833      H3836   1.082       .  S
C3834      C3906   1.474       .  S
N3837      C3841   1.362       .  A
N3837      C3838   1.360       .  A
C3838      C3954   1.487       .  S
C3839      C3840   1.368       .  A
C3839      H3842   1.083       .  S
C3840      H3843   1.082       .  S
C3841      C3893   1.482       .  S
N3844      N3845   1.324       .  A
N3844      C3848   1.348       .  A
N3844     Cu3852   2.083       .  S
N3845      C3846   1.345       .  A
N3845     Cu3851   2.089       .  S
C3846      C3847   1.385       .  A
C3846      H3849   1.079       .  S
C3847      C3848   1.387       .  A
C3847      N3882   1.444       .  S
C3848      H3850   1.080       .  S
Cu3851     N3854   2.089       .  S
Cu3852     N3862   2.083       .  S
Cu3853     N3855   2.071       .  S
Cu3853     N3861   2.070       .  S
N3854      N3855   1.323       .  A
N3854      C3858   1.351       .  A
N3855      C3856   1.341       .  A
C3856      C3857   1.380       .  A
C3856      H3859   1.081       .  S
C3857      C3858   1.387       .  A
C3857      N3875   1.438       .  S
C3858      H3860   1.081       .  S
N3861      N3862   1.324       .  A
N3861      C3865   1.350       .  A
N3862      C3863   1.344       .  A
C3863      C3864   1.381       .  A
C3863      H3866   1.082       .  S
C3864      C3865   1.379       .  A
C3864      N3868   1.435       .  S
C3865      H3867   1.081       .  S
N3868      C3872   1.352   1_565  A
N3868      C3869   1.352       .  A
C3869      C4069   1.487       .  S
C3870      C3871   1.379       .  A
C3870      H3873   1.082       .  S
C3871      H3874   1.082       .  S
C3872      C3890   1.479       .  S
N3875      C3879   1.350       .  A
N3875      C3876   1.356       .  A
C3876      C3877   1.390       .  A
C3876      C4053   1.482       .  S
C3877      C3878   1.374       .  A
C3877      H3880   1.083       .  S
C3878      C3879   1.376       .  A
C3878      H3881   1.082       .  S
C3879      C3909   1.471       .  S
N3882      C3886   1.356       .  A
N3882      C3883   1.355       .  A
C3883      C3884   1.385       .  A
C3883      C4117   1.478       .  S
C3884      C3885   1.377       .  A
C3885      C3886   1.379       .  A
C3886      C3925   1.475       .  S
C3889      C3890   1.402       .  A
C3889      C3894   1.407       .  A
C3889      H3896   1.082       .  S
C3891      C3892   1.409       .  A
C3891      C3898   1.517       .  S
C3892      C3893   1.406       .  A
C3892      H3897   1.083       .  S
C3894      C3895   1.520       .  S
C3895      F3899   1.384       .  S
C3895      F3901   1.383       .  S
C3898      F3902   1.381       .  S
C3898      F3904   1.384       .  S
C3905      C3906   1.398       .  A
C3905      C3910   1.405       .  A
C3905      H3912   1.083       .  S
C3906      C3907   1.420       .  A
C3907      C3908   1.403       .  A
C3907      C3914   1.519       .  S
C3908      C3909   1.396       .  A
C3908      H3913   1.083       .  S
C3909      C3910   1.418       .  A
C3910      C3911   1.520       .  S
C3911      F3915   1.384       .  S
C3911      F3916   1.381       .  S
C3911      F3917   1.383       .  S
C3914      F3918   1.381       .  S
C3914      F3919   1.385       .  S
C3914      F3920   1.381       .  S
C3921      C3926   1.406       .  A
C3921      H3928   1.083       .  S
C3922      C3923   1.411       .  A
C3923      C3930   1.515       .  S
C3924      C3925   1.404       .  A
C3924      H3929   1.083       .  S
C3925      C3926   1.410       .  A
C3926      C3927   1.516       .  S
C3927      F3931   1.384       .  S
C3927      F3932   1.383       .  S
C3927      F3933   1.383       .  S
C3930      F3934   1.382       .  S
C3930      F3935   1.383       .  S
C3930      F3936   1.385       .  S
C3937      C3938   1.403       .  A
C3937      C3942   1.405       .  A
C3937      H3944   1.083       .  S
C3938      C3939   1.414       .  A
C3939      C3940   1.403       .  A
C3939      C3946   1.519       .  S
C3940      C3941   1.401       .  A
C3940      H3945   1.082       .  S
C3941      C3942   1.414       .  A
C3942      C3943   1.518       .  S
C3943      F3947   1.385       .  S
C3943      F3948   1.381       .  S
C3943      F3949   1.383       .  S
C3946      F3950   1.380   1_565  S
C3946      F3951   1.383       .  S
C3946      F3952   1.385       .  S
C3953      C3958   1.408       .  A
C3953      H3960   1.083       .  S
C3954      C3955   1.420       .  A
C3955      C3956   1.410       .  A
C3955      C3962   1.520       .  S
C3956      H3961   1.083       .  S
C3957      C3958   1.416       .  A
C3958      C3959   1.516       .  S
C3959      F3963   1.384       .  S
C3959      F3964   1.380       .  S
C3959      F3965   1.382   1_545  S
C3962      F3966   1.378       .  S
C3962      F3967   1.383       .  S
C3962      F3968   1.385       .  S
C3969      C3970   1.398       .  A
C3969      C3974   1.406       .  A
C3969      H3976   1.083       .  S
C3970      C3971   1.418       .  A
C3971      C3972   1.405       .  A
C3971      C3978   1.517       .  S
C3972      C3973   1.399       .  A
C3972      H3977   1.083       .  S
C3973      C3974   1.419       .  A
C3974      C3975   1.519       .  S
C3975      F3979   1.385       .  S
C3975      F3980   1.384       .  S
C3975      F3981   1.381       .  S
C3978      F3982   1.381       .  S
C3978      F3983   1.382       .  S
C3978      F3984   1.385       .  S
C3985      C3986   1.409       .  A
C3985      C3990   1.408       .  A
C3985      H3992   1.078       .  S
C3986      C3987   1.425       .  A
C3987      C3988   1.399       .  A
C3987      C3994   1.523       .  S
C3988      C3989   1.396       .  A
C3988      H3993   1.081       .  S
C3989      C3990   1.412       .  A
C3990      C3991   1.517       .  S
C3991      F3995   1.383       .  S
C3991      F3996   1.382       .  S
C3991      F3997   1.383       .  S
C3994      F3998   1.378       .  S
C3994      F3999   1.381       .  S
C3994      F4000   1.385       .  S
C4001      C4002   1.397       .  A
C4001      C4006   1.408       .  A
C4001      H4008   1.083       .  S
C4002      C4003   1.417       .  A
C4003      C4004   1.407       .  A
C4003      C4010   1.517       .  S
C4004      C4005   1.401       .  A
C4004      H4009   1.083       .  S
C4005      C4006   1.425       .  A
C4006      C4007   1.519       .  S
C4007      F4011   1.385       .  S
C4007      F4012   1.380       .  S
C4007      F4013   1.381       .  S
C4010      F4014   1.382       .  S
C4010      F4015   1.383       .  S
C4010      F4016   1.385       .  S
C4017      C4022   1.411       .  A
C4017      H4024   1.079       .  S
C4018      C4019   1.424       .  A
C4019      C4020   1.401       .  A
C4019      C4026   1.523       .  S
C4020      H4025   1.084       .  S
C4021      C4022   1.415   1_455  A
C4022      C4023   1.516       .  S
C4023      F4027   1.383       .  S
C4023      F4028   1.382       .  S
C4023      F4029   1.383       .  S
C4026      F4030   1.382       .  S
C4026      F4031   1.381       .  S
C4026      F4032   1.385       .  S
C4033      C4034   1.399       .  A
C4033      C4038   1.405       .  A
C4033      H4040   1.083       .  S
C4034      C4035   1.419       .  A
C4035      C4036   1.406       .  A
C4035      C4042   1.518       .  S
C4036      C4037   1.398       .  A
C4036      H4041   1.083       .  S
C4037      C4038   1.417       .  A
C4038      C4039   1.518       .  S
C4039      F4043   1.382       .  S
C4039      F4044   1.382       .  S
C4039      F4045   1.384       .  S
C4042      F4046   1.385       .  S
C4042      F4047   1.380       .  S
C4042      F4048   1.381       .  S
C4049      C4050   1.403       .  A
C4049      C4054   1.409       .  A
C4049      H4056   1.084       .  S
C4050      C4051   1.413       .  A
C4051      C4052   1.397       .  A
C4051      C4058   1.519       .  S
C4052      C4053   1.405       .  A
C4052      H4057   1.083       .  S
C4053      C4054   1.417       .  A
C4054      C4055   1.513       .  S
C4055      F4059   1.384       .  S
C4055      F4060   1.383       .  S
C4055      F4061   1.380       .  S
C4058      F4062   1.382       .  S
C4058      F4063   1.380       .  S
C4058      F4064   1.385       .  S
C4065      C4066   1.398       .  A
C4065      C4070   1.398       .  A
C4065      H4072   1.082       .  S
C4067      C4068   1.409       .  A
C4067      C4074   1.516       .  S
C4068      C4069   1.406       .  A
C4068      H4073   1.082       .  S
C4070      C4071   1.522       .  S
C4071      F4075   1.385       .  S
C4071      F4076   1.381       .  S
C4071      F4077   1.381       .  S
C4074      F4078   1.383       .  S
C4074      F4079   1.382       .  S
C4074      F4080   1.384       .  S
C4081      C4082   1.397       .  A
C4081      C4086   1.405       .  A
C4081      H4088   1.083       .  S
C4082      C4083   1.418       .  A
C4083      C4084   1.406       .  A
C4083      C4090   1.518       .  S
C4084      C4085   1.398       .  A
C4084      H4089   1.083       .  S
C4085      C4086   1.418       .  A
C4086      C4087   1.515       .  S
C4087      F4091   1.384       .  S
C4087      F4092   1.382       .  S
C4087      F4093   1.382       .  S
C4090      F4094   1.382       .  S
C4090      F4095   1.382       .  S
C4090      F4096   1.384       .  S
C4097      C4098   1.404       .  A
C4097      C4102   1.403       .  A
C4097      H4104   1.085       .  S
C4098      C4099   1.415       .  A
C4099      C4100   1.405       .  A
C4099      C4106   1.519       .  S
C4100      C4101   1.405       .  A
C4100      H4105   1.085       .  S
C4101      C4102   1.413       .  A
C4102      C4103   1.519       .  S
C4103      F4107   1.383       .  S
C4103      F4108   1.382       .  S
C4103      F4109   1.383       .  S
C4106      F4110   1.383       .  S
C4106      F4111   1.382   1_655  S
C4106      F4112   1.383   1_655  S
C4113      C4114   1.404       .  A
C4113      C4118   1.408       .  A
C4113      H4120   1.081       .  S
C4115      C4116   1.403   1_655  A
C4115      C4122   1.524       .  S
C4116      H4121   1.084   1_455  S
C4117      C4118   1.416       .  A
C4118      C4119   1.516       .  S
C4119      F4123   1.383       .  S
C4119      F4124   1.384       .  S
C4119      F4125   1.381       .  S
C4122      F4126   1.381       .  S
C4122      F4127   1.383       .  S
C4122      F4128   1.385       .  S
C4129      C4134   1.403       .  A
C4129      H4136   1.083   1_556  S
C4130      C4131   1.413       .  A
C4131      C4132   1.404       .  A
C4131      C4138   1.517       .  S
C4132      H4137   1.083       .  S
C4133      C4134   1.413       .  A
C4134      C4135   1.517       .  S
C4135      F4139   1.385   1_556  S
C4135      F4140   1.383       .  S
C4135      F4141   1.382       .  S
C4138      F4142   1.383       .  S
C4138      F4143   1.383       .  S
C4138      F4144   1.385       .  S
C4145      C4146   1.400   1_556  A
C4145      C4150   1.406       .  A
C4145      H4152   1.083       .  S
C4146      C4147   1.418       .  A
C4147      C4148   1.404   1_554  A
C4147      C4154   1.520       .  S
C4148      C4149   1.398       .  A
C4148      H4153   1.083       .  S
C4149      C4150   1.417       .  A
C4150      C4151   1.519       .  S
C4151      F4155   1.385       .  S
C4151      F4156   1.383       .  S
C4151      F4157   1.382       .  S
C4154      F4158   1.381       .  S
C4154      F4159   1.383       .  S
C4154      F4160   1.385       .  S
C4161      C4162   1.398       .  A
C4161      H4168   1.083       .  S
C4162      C4163   1.416       .  A
C4163      C4170   1.521       .  S
C4164      C4165   1.400   1_566  A
C4164      H4169   1.083       .  S
C4165      C4166   1.418       .  A
C4166      C4167   1.519       .  S
C4167      F4173   1.385       .  S
C4170      F4174   1.379       .  S
C4177      C4178   1.403       .  A
C4177      C4182   1.400       .  A
C4177      H4184   1.084       .  S
C4178      C4179   1.418       .  A
C4179      C4180   1.409       .  A
C4179      C4186   1.514       .  S
C4180      C4181   1.402       .  A
C4180      H4185   1.084       .  S
C4181      C4182   1.416       .  A
C4182      C4183   1.522       .  S
C4183      F4187   1.385       .  S
C4183      F4188   1.381       .  S
C4183      F4189   1.383       .  S
C4186      F4190   1.383       .  S
C4186      F4191   1.382       .  S
C4186      F4192   1.384       .  S
C4193      C4194   1.404       .  A
C4193      C4198   1.402       .  A
C4193      H4200   1.080       .  S
C4195      C4196   1.404       .  A
C4195      C4202   1.515       .  S
C4196      C4197   1.407       .  A
C4196      H4201   1.079       .  S
C4198      C4199   1.517       .  S
C4199      F4203   1.383       .  S
C4199      F4204   1.383       .  S
C4199      F4205   1.384       .  S
C4202      F4206   1.384       .  S
C4202      F4207   1.383       .  S
C4202      F4208   1.383       .  S
C4209      C4210   1.396       .  A
C4209      C4214   1.403       .  A
C4209      H4216   1.084       .  S
C4210      C4211   1.412       .  A
C4211      C4218   1.516       .  S
C4212      C4213   1.404   1_545  A
C4212      H4217   1.084       .  S
C4215      F4220   1.382       .  S
C4215      F4221   1.381       .  S
C4218      F4222   1.382       .  S
C4218      F4223   1.382       .  S
C4225      C4226   1.403       .  A
C4225      C4230   1.405       .  A
C4225      H4232   1.082       .  S
C4226      C4227   1.417       .  A
C4228      C4229   1.405       .  A
C4228      H4233   1.081       .  S
C4230      C4231   1.516       .  S
C4231      F4235   1.383       .  S
C4231      F4237   1.384       .  S
C4234      F4238   1.382       .  S
C4234      F4240   1.384   1_655  S
C4241      C4242   1.397       .  A
C4241      C4246   1.406       .  A
C4241      H4248   1.084       .  S
C4242      C4243   1.415       .  A
C4243      C4244   1.404       .  A
C4243      C4250   1.519       .  S
C4244      C4245   1.403       .  A
C4244      H4249   1.083       .  S
C4245      C4246   1.422       .  A
C4246      C4247   1.520       .  S
C4247      F4251   1.385       .  S
C4247      F4252   1.380       .  S
C4247      F4253   1.383       .  S
C4250      F4254   1.382       .  S
C4250      F4255   1.382       .  S
C4250      F4256   1.385       .  S
C4257      C4258   1.401       .  A
C4257      C4262   1.405       .  A
C4257      H4264   1.083       .  S
C4258      C4259   1.411       .  A
C4259      C4260   1.405       .  A
C4259      C4266   1.517       .  S
C4260      C4261   1.404       .  A
C4260      H4265   1.083       .  S
C4261      C4262   1.414       .  A
C4262      C4263   1.517       .  S
C4263      F4267   1.385       .  S
C4263      F4268   1.380       .  S
C4263      F4269   1.383       .  S
C4266      F4270   1.382       .  S
C4266      F4271   1.383       .  S
C4266      F4272   1.385       .  S
C4273      C4274   1.409       .  A
C4273      C4278   1.410       .  A
C4273      H4280   1.084       .  S
C4274      C4275   1.423       .  A
C4275      C4276   1.410       .  A
C4275      C4282   1.519       .  S
C4276      C4277   1.407       .  A
C4276      H4281   1.083       .  S
C4277      C4278   1.422       .  A
C4278      C4279   1.522       .  S
C4279      F4283   1.385       .  S
C4279      F4284   1.379       .  S
C4279      F4285   1.383       .  S
C4282      F4286   1.378       .  S
C4282      F4287   1.382       .  S
C4282      F4288   1.385       .  S
C4289      C4290   1.398       .  A
C4289      C4294   1.404       .  A
C4289      H4296   1.083       .  S
C4290      C4291   1.417       .  A
C4291      C4292   1.404       .  A
C4291      C4298   1.519       .  S
C4292      C4293   1.398       .  A
C4292      H4297   1.083       .  S
C4293      C4294   1.418       .  A
C4294      C4295   1.519       .  S
C4295      F4299   1.385       .  S
C4295      F4300   1.381       .  S
C4295      F4301   1.383       .  S
C4298      F4302   1.383       .  S
C4298      F4303   1.382       .  S
C4298      F4304   1.385       .  S
C4305      C4306   1.403       .  A
C4305      C4310   1.404       .  A
C4305      H4312   1.082       .  S
C4307      C4308   1.403       .  A
C4307      C4314   1.515       .  S
C4308      H4313   1.081       .  S
C4309      C4310   1.421   1_545  A
C4310      C4311   1.516       .  S
C4311      F4315   1.383       .  S
C4311      F4316   1.383       .  S
C4311      F4317   1.384       .  S
C4314      F4318   1.383       .  S
C4314      F4319   1.384       .  S
C4314      F4320   1.383       .  S
C4321      C4322   1.405       .  A
C4321      H4328   1.082       .  S
C4322      C4323   1.422   1_565  A
C4323      C4330   1.524       .  S
C4324      C4325   1.400       .  A
C4324      H4329   1.084       .  S
C4325      C4326   1.416       .  A
C4326      C4327   1.515       .  S
C4327      F4331   1.384       .  S
C4327      F4332   1.382       .  S
C4327      F4333   1.383       .  S
C4330      F4334   1.383   1_545  S
C4330      F4335   1.380       .  S
C4330      F4336   1.385       .  S
C4337      C4338   1.397       .  A
C4337      C4342   1.403       .  A
C4337      H4344   1.083       .  S
C4338      C4339   1.414       .  A
C4339      C4340   1.409       .  A
C4339      C4346   1.516       .  S
C4340      C4341   1.406       .  A
C4340      H4345   1.079       .  S
C4341      C4342   1.428       .  A
C4342      C4343   1.523       .  S
C4343      F4347   1.385       .  S
C4343      F4348   1.378       .  S
C4343      F4349   1.380       .  S
C4346      F4350   1.382       .  S
C4346      F4351   1.384       .  S
C4346      F4352   1.383       .  S
C4353      C4354   1.407       .  A
C4353      C4358   1.410       .  A
C4353      H4360   1.080       .  S
C4355      C4356   1.401       .  A
C4355      C4362   1.524       .  S
C4356      C4357   1.397   1_655  A
C4356      H4361   1.083       .  S
C4358      C4359   1.516       .  S
C4359      F4363   1.384       .  S
C4359      F4364   1.382       .  S
C4362      F4367   1.381       .  S
C4362      F4368   1.385       .  S
C4369      C4370   1.402       .  A
C4369      C4374   1.403       .  A
C4369      H4376   1.085       .  S
C4370      C4371   1.409       .  A
C4371      C4372   1.404       .  A
C4371      C4378   1.517       .  S
C4372      C4373   1.407       .  A
C4372      H4377   1.083       .  S
C4373      C4374   1.417       .  A
C4374      C4375   1.520       .  S
C4375      F4379   1.384       .  S
C4375      F4380   1.381       .  S
C4375      F4381   1.382       .  S
C4378      F4382   1.383       .  S
C4378      F4383   1.382       .  S
C4378      F4384   1.385       .  S
C4385      C4386   1.404       .  A
C4385      C4390   1.404       .  A
C4385      H4392   1.080       .  S
C4386      C4387   1.420       .  A
C4387      C4388   1.402       .  A
C4387      C4394   1.516       .  S
C4388      C4389   1.403       .  A
C4388      H4393   1.080       .  S
C4389      C4390   1.421       .  A
C4390      C4391   1.517       .  S
C4391      F4395   1.383       .  S
C4391      F4396   1.383       .  S
C4391      F4397   1.384       .  S
C4394      F4398   1.383       .  S
C4394      F4399   1.384       .  S
C4394      F4400   1.384       .  S
C4401      C4406   1.410       .  A
C4401      H4408   1.083       .  S
C4402      C4403   1.421       .  A
C4403      C4404   1.411       .  A
C4403      C4410   1.519       .  S
C4404      H4409   1.083       .  S
C4405      C4406   1.418       .  A
C4406      C4407   1.518       .  S
C4407      F4411   1.384       .  S
C4407      F4412   1.383       .  S
C4407      F4413   1.380       .  S
C4410      F4414   1.382       .  S
C4410      F4415   1.379       .  S
C4410      F4416   1.385       .  S
C4417      C4418   1.402       .  A
C4417      C4422   1.408       .  A
C4417      H4424   1.083       .  S
C4418      C4419   1.420       .  A
C4419      C4420   1.407       .  A
C4419      C4426   1.520       .  S
C4420      C4421   1.399       .  A
C4420      H4425   1.083       .  S
C4421      C4422   1.417       .  A
C4422      C4423   1.519       .  S
C4423      F4427   1.385       .  S
C4423      F4428   1.382       .  S
C4423      F4429   1.381       .  S
C4426      F4430   1.385       .  S
C4426      F4431   1.384       .  S
C4426      F4432   1.380       .  S
C4433      C4434   1.403       .  A
C4433      C4438   1.405       .  A
C4433      H4440   1.083       .  S
C4434      C4435   1.410       .  A
C4435      C4436   1.404       .  A
C4435      C4442   1.516       .  S
C4436      C4437   1.404       .  A
C4436      H4441   1.083       .  S
C4437      C4438   1.413       .  A
C4438      C4439   1.517       .  S
C4439      F4443   1.385       .  S
C4439      F4444   1.383       .  S
C4439      F4445   1.381       .  S
C4442      F4446   1.383       .  S
C4442      F4447   1.382       .  S
C4442      F4448   1.385       .  S
C4449      C4450   1.403       .  A
C4449      C4454   1.409       .  A
C4449      H4456   1.083       .  S
C4450      C4451   1.416       .  A
C4451      C4452   1.399       .  A
C4452      C4453   1.404       .  A
C4452      H4457   1.084       .  S
C4453      C4454   1.416       .  A
C4454      C4455   1.515       .  S
C4455      F4459   1.384       .  S
C4455      F4460   1.382       .  S
C4455      F4461   1.381       .  S
C4458      F4463   1.382       .  S
C4458      F4464   1.385       .  S
