geometry optimzed in LAMMPS
_audit_creation_date              2020-12-01 
_audit_creation_method            'lammps2cif' 
_symmetry_space_group_name_H-M    'P1' 
_symmetry_Int_Tables_number       1 
_symmetry_cell_setting            triclinic 
loop_ 
_symmetry_equiv_pos_as_xyz 
  x,y,z 
_cell_length_a                    37.67410563 
_cell_length_b                    36.33816371040405 
_cell_length_c                    32.10001909373822 
_cell_angle_alpha                 89.99862553442975 
_cell_angle_beta                  116.37379413085878 
_cell_angle_gamma                 89.99972981010116 
loop_ 
_atom_site_label 
_atom_site_type_symbol 
_atom_site_fract_x 
_atom_site_fract_y 
_atom_site_fract_z 
_atom_site_charge 
C1          C  0.81945831  0.09217106  0.43771931     0.31800
C2          C  0.85048434  0.04230942  0.40022294     0.31800
C3          C  0.84228371  0.10814675  0.41224649    -0.04400
C4          C  0.85037665  0.06586337  0.47315942    -0.05200
C5          C  0.78949976  0.06547538  0.40255882    -0.05100
C6          C  0.85792505  0.08243261  0.39337117    -0.04400
C7          C  0.86652606  0.03939722  0.45354203    -0.05200
C8          C  0.80564168  0.04025980  0.38302079    -0.05100
C9          C  0.87506185  0.10087281  0.36957966    -0.30400
N10         N  0.87109337  0.13749470  0.37405507     0.16100
C11         C  0.85073097  0.14231228  0.39974900    -0.30500
H12         H  0.83968365  0.16847641  0.40519953     0.18000
C13         C  0.87544279  0.00865378  0.48192726    -0.29400
N14         N  0.86736608  0.01606340  0.51813764     0.14800
C15         C  0.85108712  0.04997131  0.51238243    -0.29400
C16         C  0.78057518  0.01049360  0.36919725    -0.29700
N17         N  0.74923604  0.01673164  0.37829425     0.15300
H18         H  0.78555658  0.48521235  0.35470683     0.17900
C19         C  0.75485438  0.04974281  0.39995425    -0.29700
H20         H  0.73568538  0.06122532  0.41366771     0.17900
H21         H  0.83620453  0.06050398  0.03203732     0.17900
H22         H  0.88670697  0.08857061  0.34746871     0.18000
H23         H  0.88269684  0.48161385  0.47379493     0.17900
O24         O  0.72757858  0.18899914  0.44422580    -0.80000
C25         C  0.62887413  0.23872341  0.25764947     0.99400
O26         O  0.65248919  0.21228478  0.27141001    -0.69100
O27         O  0.72150907  0.23805091  0.33144390    -0.72700
Al28       Al  0.69017201  0.19777456  0.33184659     1.49000
C29         C  0.74751003  0.25309106  0.36755485     0.94600
O30         O  0.69188263  0.28745258  0.41114173    -0.78900
O31         O  0.61377751  0.21783014  0.39458195    -0.72500
Al32       Al  0.70660898  0.23762696  0.42325056     1.90100
O33         O  0.62832598  0.28396632  0.36329673    -0.71600
O34         O  0.60352051  0.18517940  0.31575980    -0.71400
O35         O  0.61733954  0.25370113  0.28475334    -0.77100
O36         O  0.65958342  0.15641520  0.32968138    -0.75300
O37         O  0.67196379  0.22301348  0.36597247    -1.11400
O38         O  0.73399261  0.17514367  0.38177827    -0.70600
C39         C  0.74369850  0.17028282  0.42418141     1.00100
C40         C  0.65881990  0.30248723  0.38816591     0.96500
Al41       Al  0.62023319  0.23400486  0.34175715     1.55600
O42         O  0.74793694  0.24931899  0.40678350    -0.75200
C43         C  0.62269556  0.15606618  0.31707605     1.00700
C44         C  0.63655002  0.22274974  0.43701736     0.95600
O45         O  0.67240412  0.23063609  0.45079671    -0.80500
C46         C  0.66346790  0.34217802  0.11398904     0.31800
C47         C  0.63243847  0.29232205  0.15148890     0.31800
C48         C  0.64063204  0.35815703  0.13944578    -0.04400
C49         C  0.63255929  0.31586397  0.07855304    -0.05200
C50         C  0.69342633  0.31548920  0.14916346    -0.05100
C51         C  0.62498904  0.33244606  0.15832378    -0.04400
C52         C  0.61640890  0.28939974  0.09817212    -0.05200
C53         C  0.67728225  0.29027600  0.16870511    -0.05100
C54         C  0.60784716  0.35089044  0.18210574    -0.30400
N55         N  0.61181371  0.38751149  0.17762045     0.16100
C56         C  0.63218045  0.39232434  0.15193083    -0.30500
H57         H  0.64322937  0.41848664  0.14647751     0.18000
C58         C  0.60750267  0.25865208  0.06979660    -0.29400
N59         N  0.61558547  0.26605883  0.03358935     0.14800
C60         C  0.63185907  0.29996800  0.03933860    -0.29400
C61         C  0.70233807  0.26050132  0.18251360    -0.29700
N62         N  0.73366969  0.26672981  0.17340163     0.15300
H63         H  0.69735068  0.23521888  0.19699728     0.17900
C64         C  0.72805920  0.29974367  0.15174904    -0.29700
H65         H  0.74722230  0.31121769  0.13802199     0.17900
H66         H  0.64674305  0.31050070  0.01968449     0.17900
H67         H  0.59620180  0.33859212  0.20421928     0.18000
H68         H  0.60024878  0.23161344  0.07793205     0.17900
O69         O  0.75535940  0.43899341  0.10748101    -0.80000
C70         C  0.85404776  0.48872048  0.29405924     0.99400
O71         O  0.83042732  0.46228723  0.28029414    -0.69100
O72         O  0.76141335  0.48805907  0.22024595    -0.72700
Al73       Al  0.79275126  0.44777818  0.21985662     1.49000
C74         C  0.73541637  0.50309834  0.18412941     0.94600
O75         O  0.79105571  0.03744567  0.14054756    -0.78900
O76         O  0.86916412  0.46782675  0.15713938    -0.72500
Al77       Al  0.77632888  0.98762128  0.12844940     1.90100
O78         O  0.85460843  0.03396226  0.18841329    -0.71600
O79         O  0.87940689  0.43517192  0.23595632    -0.71400
O80         O  0.86558859  0.50369637  0.26695919    -0.77100
O81         O  0.82333987  0.40641538  0.22203376    -0.75300
O82         O  0.81096777  0.47301174  0.18573388    -1.11400
O83         O  0.74893358  0.42514786  0.16992418    -0.70600
C84         C  0.73923345  0.42028249  0.12752358     1.00100
C85         C  0.82411644  0.05248096  0.16352725     0.96500
Al86       Al  0.86269929  0.48400038  0.20995749     1.55600
O87         O  0.73499553  0.99932108  0.14490434    -0.75200
C88         C  0.86022771  0.40606091  0.23463827     1.00700
C89         C  0.84639569  0.47274321  0.11470182     0.95600
O90         O  0.81053976  0.98062416  0.10091410    -0.80500
O91         O  0.55302571  0.45988423  0.24662839    -0.80000
C92         C  0.71370923  0.49500887  0.35837763     0.99400
O93         O  0.68828683  0.49491070  0.37442950    -0.69100
O94         O  0.62658220  0.03483727  0.32839998    -0.72700
Al95       Al  0.63105995  0.48464439  0.34278251     1.49000
C96         C  0.59990654  0.05004134  0.29357040     0.94600
O97         O  0.62593860  0.01432977  0.22060994    -0.78900
O98         O  0.63288018  0.40778476  0.25268295    -0.72500
Al99       Al  0.59090729  0.48629263  0.23512371     1.90100
O100        O  0.66887771  0.46892027  0.23574508    -0.71600
O101        O  0.67745100  0.41440279  0.34046465    -0.71400
O102        O  0.70784951  0.47693105  0.32275715    -0.77100
O103        O  0.63512605  0.43533974  0.36414320    -0.75300
O104        O  0.63036223  0.47178131  0.28918247    -1.11400
O105        O  0.57411227  0.47823556  0.31966271    -0.70600
C106        C  0.54730068  0.46494702  0.28213820     1.00100
C107        C  0.65566305  0.50027086  0.21868098     0.96500
Al108      Al  0.66870269  0.44413685  0.28818820     1.55600
O109        O  0.57858676  0.03166464  0.25774061    -0.75200
C110        C  0.65713804  0.41012530  0.36226641     1.00700
C111        C  0.61140848  0.41385476  0.21045797     0.95600
O112        O  0.59449979  0.44482409  0.19769219    -0.80500
O113        O  0.92986136  0.20984797  0.30499990    -0.80000
C114        C  0.76918664  0.24499422  0.19329342     0.99400
O115        O  0.79460647  0.24491398  0.17724052    -0.69100
O116        O  0.85630953  0.28483254  0.22327313    -0.72700
Al117      Al  0.85182440  0.23464215  0.20886935     1.49000
C118        C  0.88299770  0.30002584  0.25810031     0.94600
O119        O  0.85697845  0.26430498  0.33105438    -0.78900
O120        O  0.85003108  0.15776208  0.29898820    -0.72500
Al121      Al  0.89199869  0.23626501  0.31652848     1.90100
O122        O  0.81402649  0.21890396  0.31591103    -0.71600
O123        O  0.80546840  0.16437333  0.21121089    -0.71400
O124        O  0.77504512  0.22689468  0.22889883    -0.77100
O125        O  0.84775071  0.18534569  0.18748608    -0.75300
O126        O  0.85253450  0.22176225  0.26247244    -1.11400
O127        O  0.90876103  0.22822455  0.23196962    -0.70600
C128        C  0.93557002  0.21491291  0.26947848     1.00100
C129        C  0.82724995  0.25025123  0.33298032     0.96500
Al130      Al  0.81420283  0.19411096  0.26347514     1.55600
O131        O  0.90432693  0.28163612  0.29391468    -0.75200
C132        C  0.82576510  0.16011586  0.18938636     1.00700
C133        C  0.87149997  0.16383405  0.34121204     0.95600
O134        O  0.88840919  0.19480217  0.35397048    -0.80500
C135        C  0.16336810  0.09125248  0.11389499     0.31800
C136        C  0.13234831  0.04138977  0.15139404     0.31800
C137        C  0.14052903  0.10722772  0.13935558    -0.04400
C138        C  0.13246637  0.06493259  0.07845940    -0.05200
C139        C  0.19333371  0.06456511  0.14906883    -0.05100
C140        C  0.12489026  0.08151061  0.15822961    -0.04400
C141        C  0.11631957  0.03846513  0.09807854    -0.05200
C142        C  0.17719356  0.03934849  0.16861221    -0.05100
C143        C  0.10774716  0.09994371  0.18201987    -0.30400
N144        N  0.11170816  0.13656694  0.17754838     0.16100
C145        C  0.13207417  0.14139054  0.15185693    -0.30500
H146        H  0.14312108  0.16755713  0.14641240     0.18000
C147        C  0.10743243  0.00771163  0.06971379    -0.29400
N148        N  0.11552351  0.01511633  0.03351270     0.14800
C149        C  0.13178383  0.04903089  0.03925588    -0.29400
C150        C  0.20224891  0.50957180  0.18241144    -0.29700
N151        N  0.23357606  0.01579963  0.17329074     0.15300
H152        H  0.19726477  0.48428835  0.19689636     0.17900
C153        C  0.22796286  0.04881655  0.15164246    -0.29700
H154        H  0.24712385  0.06029317  0.13791398     0.17900
H155        H  0.14667258  0.05956484  0.01960800     0.17900
H156        H  0.09610623  0.08763514  0.20413205     0.18000
H157        H  0.10018571  0.48067144  0.07785451     0.17900
O158        O  0.25521525  0.18808233  0.10728435    -0.80000
C159        C  0.35395091  0.23782380  0.29384550     0.99400
O160        O  0.33030833  0.21140802  0.28008480    -0.69100
O161        O  0.26128578  0.23715947  0.22004474    -0.72700
Al162      Al  0.29263100  0.19688446  0.21966263     1.49000
C163        C  0.23527523  0.25218025  0.18392370     0.94600
O164        O  0.29092247  0.28654757  0.14034146    -0.78900
O165        O  0.36901597  0.21691273  0.15689744    -0.72500
Al166      Al  0.27618925  0.23671550  0.12824118     1.90100
O167        O  0.35447962  0.28305503  0.18818652    -0.71600
O168        O  0.37928034  0.18427334  0.23572037    -0.71400
O169        O  0.36549123  0.25278901  0.26673923    -0.77100
O170        O  0.32321940  0.15552682  0.22184924    -0.75300
O171        O  0.31083816  0.22210982  0.18552391    -1.11400
O172        O  0.24881925  0.17424059  0.16974823    -0.70600
C173        C  0.23910636  0.16936933  0.12734663     1.00100
C174        C  0.32398694  0.30158080  0.16332268     0.96500
Al175      Al  0.36257204  0.23309391  0.20972590     1.55600
O176        O  0.23486049  0.24841217  0.14470187    -0.75200
C177        C  0.36010193  0.15517024  0.23442823     1.00700
C178        C  0.34623849  0.22181997  0.11446183     0.95600
O179        O  0.31038654  0.22971160  0.10068736    -0.80500
C180        C  0.31939441  0.34125127  0.43752129     0.31800
C181        C  0.35041716  0.29139449  0.40002031     0.31800
C182        C  0.34224282  0.35723016  0.41207428    -0.04400
C183        C  0.35028812  0.31492301  0.47295327    -0.05200
C184        C  0.28942904  0.31457285  0.40233567    -0.05100
C185        C  0.35788323  0.33151599  0.39319897    -0.04400
C186        C  0.36643546  0.28845764  0.45333368    -0.05200
C187        C  0.30557111  0.28935950  0.38278952    -0.05100
C188        C  0.37503246  0.34995284  0.36941829    -0.30400
N189        N  0.37107360  0.38657518  0.37389719     0.16100
C190        C  0.35070300  0.39139473  0.39958370    -0.30500
H191        H  0.33965516  0.41756011  0.40502947     0.18000
C192        C  0.37531569  0.25769987  0.48169279    -0.29400
N193        N  0.36722179  0.26510186  0.51789220     0.14800
C194        C  0.35096499  0.29901803  0.51215222    -0.29400
C195        C  0.28052349  0.25957846  0.36899943    -0.29700
N196        N  0.24920218  0.26579829  0.37813110     0.15300
H197        H  0.28551290  0.23429497  0.35452010     0.17900
C198        C  0.25480904  0.29881499  0.39977481    -0.29700
H199        H  0.23565239  0.31028336  0.41351440     0.17900
H200        H  0.33607748  0.30955214  0.03180071     0.17900
H201        H  0.38667401  0.33764807  0.34730500     0.18000
H202        H  0.38256132  0.23066023  0.47355024     0.17900
O203        O  0.22753279  0.43806664  0.44413355    -0.80000
C204        C  0.12880652  0.48782002  0.25756863     0.99400
O205        O  0.15245137  0.46140586  0.27133366    -0.69100
O206        O  0.22147007  0.48715630  0.33138024    -0.72700
Al207      Al  0.19012403  0.44687989  0.33175661     1.49000
C208        C  0.24747863  0.50217442  0.36750368     0.94600
O209        O  0.19182859  0.03653397  0.41108407    -0.78900
O210        O  0.11372969  0.46691112  0.39451360    -0.72500
Al211      Al  0.20656000  0.48670177  0.42317911     1.90100
O212        O  0.12827361  0.03305016  0.36322511    -0.71600
O213        O  0.10347211  0.43426663  0.31569479    -0.71400
O214        O  0.11726206  0.50278379  0.28467145    -0.77100
O215        O  0.15953461  0.40552186  0.32956445    -0.75300
O216        O  0.17191328  0.47210211  0.36589326    -1.11400
O217        O  0.23393395  0.42423310  0.38167167    -0.70600
C218        C  0.24364514  0.41935782  0.42407237     1.00100
C219        C  0.15876620  0.05157099  0.38810038     0.96500
Al220      Al  0.12017923  0.48308891  0.34168631     1.55600
O221        O  0.24789167  0.99840085  0.40672409    -0.75200
C222        C  0.12265219  0.40516390  0.31698654     1.00700
C223        C  0.13650565  0.47181570  0.43694997     0.95600
O224        O  0.17236026  0.97969742  0.45072805    -0.80500
O225        O  0.05295165  0.20901268  0.24667331    -0.80000
C226        C  0.21368760  0.24406041  0.35825083     0.99400
O227        O  0.18830666  0.24393269  0.37435967    -0.69100
O228        O  0.12666166  0.28394707  0.32832624    -0.72700
Al229      Al  0.13107030  0.23375617  0.34273118     1.49000
C230        C  0.09994439  0.29914123  0.29351661     0.94600
O231        O  0.12582527  0.26335464  0.22046803    -0.78900
O232        O  0.13279691  0.15683715  0.25262098    -0.72500
Al233      Al  0.09082715  0.23535937  0.23507432     1.90100
O234        O  0.16876819  0.21795033  0.23560632    -0.71600
O235        O  0.17739948  0.16349365  0.34040348    -0.71400
O236        O  0.20778938  0.22600369  0.32260360    -0.77100
O237        O  0.13506398  0.18444146  0.36406834    -0.75300
O238        O  0.13031208  0.22085812  0.28911017    -1.11400
O239        O  0.07412788  0.22748933  0.31966971    -0.70600
C240        C  0.04724274  0.21426133  0.28216426     1.00100
C241        C  0.15553640  0.24928995  0.21851671     0.96500
Al242      Al  0.16863027  0.19319807  0.28808784     1.55600
O243        O  0.07858365  0.28075867  0.25770857    -0.75200
C244        C  0.15707339  0.15921851  0.36219341     1.00700
C245        C  0.11129887  0.16289972  0.21039933     0.95600
O246        O  0.09436029  0.19385849  0.19764371    -0.80500
O247        O  0.42984619  0.45904353  0.30481265    -0.80000
C248        C  0.26909944  0.49407108  0.19319166     0.99400
O249        O  0.29448327  0.49393084  0.17708451    -0.69100
O250        O  0.35612661  0.03395117  0.22311428    -0.72700
Al251      Al  0.35172852  0.48375914  0.20873001     1.49000
C252        C  0.38283043  0.04915349  0.25792643     0.94600
O253        O  0.35693813  0.01336904  0.33097713    -0.78900
O254        O  0.34998413  0.40685179  0.29882733    -0.72500
Al255      Al  0.39194994  0.48537924  0.31638641     1.90100
O256        O  0.31401099  0.46795554  0.31584866    -0.71600
O257        O  0.30537467  0.41351691  0.21103992    -0.71400
O258        O  0.27499904  0.47602937  0.22885133    -0.77100
O259        O  0.34774474  0.43443863  0.18741363    -0.75300
O260        O  0.35247557  0.47087166  0.26234810    -1.11400
O261        O  0.40868231  0.47750082  0.23181124    -0.70600
C262        C  0.43557091  0.46429354  0.26933281     1.00100
C263        C  0.32723103  0.49929809  0.33293080     0.96500
Al264      Al  0.31415188  0.44321501  0.26336360     1.55600
O265        O  0.40418441  0.03078068  0.29374830    -0.75200
C266        C  0.32571359  0.40922796  0.18926797     1.00700
C267        C  0.37148217  0.41291190  0.34104979     0.95600
O268        O  0.38841677  0.44387184  0.35380994    -0.80500
C269        C  0.09573904  0.33821501  0.29505758    -0.11500
C270        C  0.10280562  0.37046222  0.30313312    -0.13000
C271        C  0.15662908  0.09098542  0.38790496    -0.11500
C272        C  0.15691992  0.12360319  0.38127999    -0.13000
C273        C  0.28021050  0.51887520  0.36468031    -0.11500
C274        C  0.30694487  0.51801081  0.35444165    -0.13000
C275        C  0.27451021  0.39264143  0.44802762    -0.11500
C276        C  0.29901960  0.36929259  0.45263813    -0.13000
C277        C  0.37995235  0.12047110  0.24828667    -0.11500
C278        C  0.38702659  0.08822628  0.25637222    -0.13000
C279        C  0.32585158  0.37361219  0.17017436    -0.11500
C280        C  0.32612873  0.34099576  0.16353274    -0.13000
C281        C  0.36419256  0.26676663  0.37356914    -0.11500
C282        C  0.36470803  0.25221890  0.33986770    -0.13000
C283        C  0.36161415  0.22465866  0.08101619    -0.11500
C284        C  0.36680521  0.23998699  0.05085637    -0.13000
C285        C  0.20254349  0.26887685  0.18675170    -0.11500
C286        C  0.17581339  0.26800704  0.19699745    -0.13000
C287        C  0.18373964  0.11929783  0.09877934    -0.11500
C288        C  0.20824506  0.14265080  0.10339178    -0.13000
C289        C  0.11857283  0.01676006  0.17784453    -0.11500
C290        C  0.11805292  0.50221460  0.21154582    -0.13000
C291        C  0.12112743  0.97466612  0.47039203    -0.11500
C292        C  0.11593803  0.99000127  0.00054854    -0.13000
C293        C  0.97452992  0.20847746  0.27332860    -0.11500
C294        C  0.00819959  0.20824916  0.27825330    -0.13000
C295        C  0.47463433  0.45830502  0.27327979    -0.11500
C296        C  0.50832077  0.45853373  0.27825191    -0.13000
C297        C  0.88718234  0.33910896  0.25657213    -0.11500
C298        C  0.88008407  0.37135586  0.24849401    -0.13000
C299        C  0.82624649  0.09189137  0.16370002    -0.12500
C300        C  0.82592987  0.12450782  0.17030145    -0.13000
C301        C  0.70270539  0.51983491  0.18696588    -0.11500
C302        C  0.67596775  0.51899587  0.19720072    -0.13000
C303        C  0.70836778  0.39357391  0.10354144    -0.11500
C304        C  0.68385059  0.37022304  0.09889023    -0.13000
C305        C  0.59572731  0.08912307  0.29511545    -0.11500
C306        C  0.60283302  0.12136631  0.30321047    -0.13000
C307        C  0.65668701  0.34189845  0.38797492    -0.11500
C308        C  0.65699017  0.37451400  0.38135620    -0.13000
C309        C  0.61866395  0.26769009  0.17794117    -0.11500
C310        C  0.61814201  0.25312959  0.21163440    -0.13000
C311        C  0.62116833  0.22560889  0.47045562    -0.11500
C312        C  0.61598559  0.24094589  0.00061563    -0.13000
C313        C  0.78021856  0.26982245  0.36470793    -0.11500
C314        C  0.80695144  0.26897876  0.35446528    -0.13000
C315        C  0.77456368  0.14357297  0.44816451    -0.11500
C316        C  0.79907860  0.12021911  0.45281698    -0.13000
C317        C  0.86478012  0.00312134  0.34007609    -0.11500
C318        C  0.86425736  0.01767665  0.37377104    -0.13000
C319        C  0.86696799  0.99094993  0.05111345    -0.11500
C320        C  0.86178442  0.97560793  0.08127055    -0.13000
C321        C  0.81945828  0.09217108  0.93771913     0.31800
C322        C  0.85048427  0.04230939  0.90022286     0.31800
C323        C  0.84228378  0.10814676  0.91224646    -0.04400
C324        C  0.85037651  0.06586338  0.97315930    -0.05200
C325        C  0.78949982  0.06547530  0.90255868    -0.05100
C326        C  0.85792503  0.08243259  0.89337111    -0.04400
C327        C  0.86652613  0.03939738  0.95354198    -0.05200
C328        C  0.80564166  0.04025973  0.88302063    -0.05100
C329        C  0.87506186  0.10087282  0.86957963    -0.30400
N330        N  0.87109335  0.13749466  0.87405488     0.16100
C331        C  0.85073094  0.14231229  0.89974883    -0.30500
H332        H  0.83968387  0.16847636  0.90519956     0.18000
C333        C  0.87544273  0.00865381  0.98192713    -0.29400
N334        N  0.86736596  0.01606338  0.01813758     0.14800
C335        C  0.85108703  0.04997126  0.01238241    -0.29400
C336        C  0.78057537  0.01049343  0.86919718    -0.29700
N337        N  0.74923621  0.01673148  0.87829410     0.15300
H338        H  0.78555666  0.48521225  0.85470692     0.17900
C339        C  0.75485444  0.04974278  0.89995409    -0.29700
H340        H  0.73568560  0.06122541  0.91366732     0.17900
H341        H  0.83620456  0.06050406  0.53203719     0.17900
H342        H  0.88670685  0.08857073  0.84746840     0.18000
H343        H  0.88269721  0.48161407  0.97379530     0.17900
O344        O  0.72757845  0.18899923  0.94422577    -0.80000
C345        C  0.62887419  0.23872342  0.75764955     0.99400
O346        O  0.65248916  0.21228467  0.77141006    -0.69100
O347        O  0.72150905  0.23805093  0.83144374    -0.72700
Al348      Al  0.69017204  0.19777454  0.83184659     1.49000
C349        C  0.74751005  0.25309105  0.86755480     0.94600
O350        O  0.69188267  0.28745262  0.91114166    -0.78900
O351        O  0.61377758  0.21783015  0.89458206    -0.72500
Al352      Al  0.70660904  0.23762702  0.92325063     1.90100
O353        O  0.62832599  0.28396635  0.86329670    -0.71600
O354        O  0.60352041  0.18517933  0.81575980    -0.71400
O355        O  0.61733950  0.25370114  0.78475337    -0.77100
O356        O  0.65958351  0.15641519  0.82968156    -0.75300
O357        O  0.67196380  0.22301352  0.86597254    -1.11400
O358        O  0.73399258  0.17514366  0.88177829    -0.70600
C359        C  0.74369849  0.17028291  0.92418145     1.00100
C360        C  0.65881993  0.30248727  0.88816580     0.96500
Al361      Al  0.62023312  0.23400489  0.84175715     1.55600
O362        O  0.74793698  0.24931902  0.90678352    -0.75200
C363        C  0.62269558  0.15606616  0.81707607     1.00700
C364        C  0.63655013  0.22274986  0.93701745     0.95600
O365        O  0.67240431  0.23063611  0.95079674    -0.80500
C366        C  0.66346795  0.34217802  0.61398904     0.31800
C367        C  0.63243847  0.29232199  0.65148892     0.31800
C368        C  0.64063206  0.35815700  0.63944588    -0.04400
C369        C  0.63255931  0.31586386  0.57855324    -0.05200
C370        C  0.69342634  0.31548921  0.64916345    -0.05100
C371        C  0.62498906  0.33244597  0.65832402    -0.04400
C372        C  0.61640865  0.28939979  0.59817214    -0.05200
C373        C  0.67728229  0.29027597  0.66870513    -0.05100
C374        C  0.60784717  0.35089040  0.68210591    -0.30400
N375        N  0.61181385  0.38751141  0.67762077     0.16100
C376        C  0.63218041  0.39232425  0.65193091    -0.30500
H377        H  0.64322914  0.41848674  0.64647704     0.18000
C378        C  0.60750257  0.25865202  0.56979674    -0.29400
N379        N  0.61558521  0.26605871  0.53358942     0.14800
C380        C  0.63185879  0.29996799  0.53933860    -0.29400
C381        C  0.70233817  0.26050125  0.68251373    -0.29700
N382        N  0.73366978  0.26672987  0.67340164     0.15300
H383        H  0.69735063  0.23521876  0.69699680     0.17900
C384        C  0.72805924  0.29974373  0.65174912    -0.29700
H385        H  0.74722243  0.31121791  0.63802219     0.17900
H386        H  0.64674248  0.31050064  0.51968468     0.17900
H387        H  0.59620201  0.33859190  0.70422009     0.18000
H388        H  0.60024837  0.23161340  0.57793218     0.17900
O389        O  0.75535933  0.43899342  0.60748111    -0.80000
C390        C  0.85404764  0.48872048  0.79405926     0.99400
O391        O  0.83042726  0.46228721  0.78029406    -0.69100
O392        O  0.76141332  0.48805906  0.72024602    -0.72700
Al393      Al  0.79275118  0.44777814  0.71985663     1.49000
C394        C  0.73541631  0.50309828  0.68412949     0.94600
O395        O  0.79105570  0.03744571  0.64054762    -0.78900
O396        O  0.86916407  0.46782672  0.65713937    -0.72500
Al397      Al  0.77632889  0.98762134  0.62844941     1.90100
O398        O  0.85460841  0.03396229  0.68841336    -0.71600
O399        O  0.87940700  0.43517197  0.73595641    -0.71400
O400        O  0.86558855  0.50369635  0.76695936    -0.77100
O401        O  0.82333997  0.40641536  0.72203374    -0.75300
O402        O  0.81096764  0.47301176  0.68573384    -1.11400
O403        O  0.74893355  0.42514784  0.66992409    -0.70600
C404        C  0.73923351  0.42028241  0.62752363     1.00100
C405        C  0.82411642  0.05248098  0.66352729     0.96500
Al406      Al  0.86269926  0.48400038  0.70995749     1.55600
O407        O  0.73499549  0.99932117  0.64490452    -0.75200
C408        C  0.86022783  0.40606094  0.73463840     1.00700
C409        C  0.84639574  0.47274328  0.61470186     0.95600
O410        O  0.81053965  0.98062412  0.60091412    -0.80500
O411        O  0.55302573  0.45988414  0.74662853    -0.80000
C412        C  0.71370912  0.49500893  0.85837752     0.99400
O413        O  0.68828674  0.49491057  0.87442943    -0.69100
O414        O  0.62658214  0.03483714  0.82840007    -0.72700
Al415      Al  0.63105998  0.48464441  0.84278264     1.49000
C416        C  0.59990657  0.05004134  0.79357045     0.94600
O417        O  0.62593857  0.01432962  0.72060991    -0.78900
O418        O  0.63288024  0.40778467  0.75268291    -0.72500
Al419      Al  0.59090724  0.48629257  0.73512372     1.90100
O420        O  0.66887776  0.46892028  0.73574515    -0.71600
O421        O  0.67745109  0.41440276  0.84046475    -0.71400
O422        O  0.70784954  0.47693106  0.82275711    -0.77100
O423        O  0.63512607  0.43533973  0.86414318    -0.75300
O424        O  0.63036218  0.47178123  0.78918257    -1.11400
O425        O  0.57411242  0.47823549  0.81966285    -0.70600
C426        C  0.54730069  0.46494711  0.78213828     1.00100
C427        C  0.65566285  0.50027077  0.71868073     0.96500
Al428      Al  0.66870268  0.44413679  0.78818821     1.55600
O429        O  0.57858670  0.03166468  0.75774073    -0.75200
C430        C  0.65713812  0.41012531  0.86226646     1.00700
C431        C  0.61140831  0.41385469  0.71045803     0.95600
O432        O  0.59449977  0.44482411  0.69769218    -0.80500
O433        O  0.92986134  0.20984779  0.80499988    -0.80000
C434        C  0.76918670  0.24499421  0.69329344     0.99400
O435        O  0.79460655  0.24491387  0.67724060    -0.69100
O436        O  0.85630947  0.28483269  0.72327301    -0.72700
Al437      Al  0.85182443  0.23464216  0.70886936     1.49000
C438        C  0.88299768  0.30002583  0.75810028     0.94600
O439        O  0.85697850  0.26430505  0.83105430    -0.78900
O440        O  0.85003105  0.15776220  0.79898799    -0.72500
Al441      Al  0.89199869  0.23626490  0.81652842     1.90100
O442        O  0.81402654  0.21890405  0.81591102    -0.71600
O443        O  0.80546832  0.16437324  0.71121077    -0.71400
O444        O  0.77504513  0.22689467  0.72889874    -0.77100
O445        O  0.84775084  0.18534570  0.68748603    -0.75300
O446        O  0.85253449  0.22176217  0.76247239    -1.11400
O447        O  0.90876102  0.22822457  0.73196957    -0.70600
C448        C  0.93557001  0.21491295  0.76947848     1.00100
C449        C  0.82725002  0.25025131  0.83298026     0.96500
Al450      Al  0.81420279  0.19411093  0.76347506     1.55600
O451        O  0.90432703  0.28163597  0.79391458    -0.75200
C452        C  0.82576506  0.16011589  0.68938621     1.00700
C453        C  0.87150003  0.16383405  0.84121183     0.95600
O454        O  0.88840906  0.19480220  0.85397030    -0.80500
C455        C  0.16336797  0.09125244  0.61389489     0.31800
C456        C  0.13234836  0.04138963  0.65139408     0.31800
C457        C  0.14052887  0.10722745  0.63935563    -0.04400
C458        C  0.13246616  0.06493260  0.57845929    -0.05200
C459        C  0.19333367  0.06456509  0.64906884    -0.05100
C460        C  0.12489031  0.08151034  0.65822986    -0.04400
C461        C  0.11631960  0.03846500  0.59807859    -0.05200
C462        C  0.17719356  0.03934846  0.66861235    -0.05100
C463        C  0.10774714  0.09994348  0.68202013    -0.30400
N464        N  0.11170800  0.13656666  0.67754862     0.16100
C465        C  0.13207404  0.14139040  0.65185700    -0.30500
H466        H  0.14312081  0.16755649  0.64641274     0.18000
C467        C  0.10743244  0.00771154  0.56971396    -0.29400
N468        N  0.11552322  0.01511618  0.53351268     0.14800
C469        C  0.13178381  0.04903072  0.53925593    -0.29400
C470        C  0.20224888  0.50957193  0.68241139    -0.29700
N471        N  0.23357606  0.01579964  0.67329082     0.15300
H472        H  0.19726455  0.48428843  0.69689579     0.17900
C473        C  0.22796281  0.04881652  0.65164242    -0.29700
H474        H  0.24712380  0.06029302  0.63791389     0.17900
H475        H  0.14667177  0.05956487  0.51960743     0.17900
H476        H  0.09610668  0.08763486  0.70413292     0.18000
H477        H  0.10018603  0.48067193  0.57785470     0.17900
O478        O  0.25521512  0.18808235  0.60728445    -0.80000
C479        C  0.35395092  0.23782367  0.79384550     0.99400
O480        O  0.33030823  0.21140799  0.78008478    -0.69100
O481        O  0.26128574  0.23715949  0.72004475    -0.72700
Al482      Al  0.29263099  0.19688442  0.71966264     1.49000
C483        C  0.23527514  0.25218024  0.68392365     0.94600
O484        O  0.29092244  0.28654753  0.64034157    -0.78900
O485        O  0.36901615  0.21691286  0.65689769    -0.72500
Al486      Al  0.27618920  0.23671547  0.62824114     1.90100
O487        O  0.35447958  0.28305507  0.68818664    -0.71600
O488        O  0.37928036  0.18427338  0.73572044    -0.71400
O489        O  0.36549111  0.25278896  0.76673913    -0.77100
O490        O  0.32321943  0.15552680  0.72184915    -0.75300
O491        O  0.31083803  0.22210977  0.68552383    -1.11400
O492        O  0.24881914  0.17424061  0.66974826    -0.70600
C493        C  0.23910622  0.16936937  0.62734667     1.00100
C494        C  0.32398686  0.30158080  0.66332287     0.96500
Al495      Al  0.36257194  0.23309395  0.70972592     1.55600
O496        O  0.23486049  0.24841210  0.64470180    -0.75200
C497        C  0.36010200  0.15517028  0.73442848     1.00700
C498        C  0.34623860  0.22181987  0.61446201     0.95600
O499        O  0.31038665  0.22971156  0.60068756    -0.80500
C500        C  0.31939444  0.34125123  0.93752126     0.31800
C501        C  0.35041718  0.29139441  0.90002033     0.31800
C502        C  0.34224302  0.35722993  0.91207435    -0.04400
C503        C  0.35028814  0.31492313  0.97295332    -0.05200
C504        C  0.28942910  0.31457278  0.90233567    -0.05100
C505        C  0.35788336  0.33151581  0.89319879    -0.04400
C506        C  0.36643546  0.28845766  0.95333372    -0.05200
C507        C  0.30557115  0.28935944  0.88278954    -0.05100
C508        C  0.37503252  0.34995281  0.86941805    -0.30400
N509        N  0.37107363  0.38657500  0.87389699     0.16100
C510        C  0.35070303  0.39139460  0.89958381    -0.30500
H511        H  0.33965520  0.41755955  0.90502958     0.18000
C512        C  0.37531574  0.25769985  0.98169284    -0.29400
N513        N  0.36722185  0.26510184  0.01789224     0.14800
C514        C  0.35096513  0.29901803  0.01215227    -0.29400
C515        C  0.28052348  0.25957845  0.86899931    -0.29700
N516        N  0.24920221  0.26579825  0.87813099     0.15300
H517        H  0.28551298  0.23429495  0.85452017     0.17900
C518        C  0.25480902  0.29881494  0.89977474    -0.29700
H519        H  0.23565220  0.31028332  0.91351378     0.17900
H520        H  0.33607732  0.30955212  0.53180030     0.17900
H521        H  0.38667416  0.33764810  0.84730420     0.18000
H522        H  0.38256149  0.23066015  0.97355044     0.17900
O523        O  0.22753269  0.43806670  0.94413344    -0.80000
C524        C  0.12880655  0.48782010  0.75756871     0.99400
O525        O  0.15245130  0.46140581  0.77133366    -0.69100
O526        O  0.22147002  0.48715634  0.83138015    -0.72700
Al527      Al  0.19012401  0.44687989  0.83175658     1.49000
C528        C  0.24747865  0.50217440  0.86750367     0.94600
O529        O  0.19182847  0.03653384  0.91108415    -0.78900
O530        O  0.11372959  0.46691110  0.89451349    -0.72500
Al531      Al  0.20655996  0.48670178  0.92317918     1.90100
O532        O  0.12827370  0.03305024  0.86322507    -0.71600
O533        O  0.10347210  0.43426670  0.81569464    -0.71400
O534        O  0.11726202  0.50278391  0.78467150    -0.77100
O535        O  0.15953460  0.40552187  0.82956455    -0.75300
O536        O  0.17191327  0.47210213  0.86589335    -1.11400
O537        O  0.23393394  0.42423299  0.88167167    -0.70600
C538        C  0.24364518  0.41935787  0.92407239     1.00100
C539        C  0.15876618  0.05157096  0.88810054     0.96500
Al540      Al  0.12017922  0.48308899  0.84168635     1.55600
O541        O  0.24789167  0.99840095  0.90672419    -0.75200
C542        C  0.12265218  0.40516391  0.81698665     1.00700
C543        C  0.13650555  0.47181574  0.93694984     0.95600
O544        O  0.17236039  0.97969733  0.95072817    -0.80500
O545        O  0.05295176  0.20901265  0.74667340    -0.80000
C546        C  0.21368772  0.24406028  0.85825084     0.99400
O547        O  0.18830670  0.24393261  0.87435953    -0.69100
O548        O  0.12666165  0.28394713  0.82832615    -0.72700
Al549      Al  0.13107032  0.23375617  0.84273115     1.49000
C550        C  0.09994431  0.29914123  0.79351660     0.94600
O551        O  0.12582542  0.26335464  0.72046808    -0.78900
O552        O  0.13279686  0.15683714  0.75262111    -0.72500
Al553      Al  0.09082720  0.23535935  0.73507438     1.90100
O554        O  0.16876804  0.21795027  0.73560617    -0.71600
O555        O  0.17739957  0.16349361  0.84040351    -0.71400
O556        O  0.20778943  0.22600380  0.82260346    -0.77100
O557        O  0.13506397  0.18444145  0.86406830    -0.75300
O558        O  0.13031210  0.22085810  0.78911027    -1.11400
O559        O  0.07412794  0.22748937  0.81966971    -0.70600
C560        C  0.04724276  0.21426140  0.78216432     1.00100
C561        C  0.15553641  0.24928990  0.71851669     0.96500
Al562      Al  0.16863026  0.19319808  0.78808785     1.55600
O563        O  0.07858360  0.28075862  0.75770858    -0.75200
C564        C  0.15707351  0.15921850  0.86219350     1.00700
C565        C  0.11129879  0.16289964  0.71039946     0.95600
O566        O  0.09436038  0.19385847  0.69764385    -0.80500
O567        O  0.42984614  0.45904346  0.80481249    -0.80000
C568        C  0.26909933  0.49407104  0.69319144     0.99400
O569        O  0.29448330  0.49393089  0.67708448    -0.69100
O570        O  0.35612660  0.03395122  0.72311427    -0.72700
Al571      Al  0.35172848  0.48375913  0.70872996     1.49000
C572        C  0.38283046  0.04915339  0.75792637     0.94600
O573        O  0.35693812  0.01336903  0.83097699    -0.78900
O574        O  0.34998395  0.40685183  0.79882706    -0.72500
Al575      Al  0.39194991  0.48537932  0.81638635     1.90100
O576        O  0.31401087  0.46795551  0.81584856    -0.71600
O577        O  0.30537459  0.41351702  0.71103982    -0.71400
O578        O  0.27499899  0.47602944  0.72885124    -0.77100
O579        O  0.34774468  0.43443863  0.68741354    -0.75300
O580        O  0.35247559  0.47087164  0.76234807    -1.11400
O581        O  0.40868218  0.47750083  0.73181121    -0.70600
C582        C  0.43557079  0.46429344  0.76933267     1.00100
C583        C  0.32723092  0.49929812  0.83293063     0.96500
Al584      Al  0.31415183  0.44321503  0.76336351     1.55600
O585        O  0.40418441  0.03078047  0.79374818    -0.75200
C586        C  0.32571350  0.40922801  0.68926786     1.00700
C587        C  0.37148213  0.41291194  0.84104962     0.95600
O588        O  0.38841667  0.44387194  0.85380989    -0.80500
C589        C  0.09573908  0.33821501  0.79505764    -0.11500
C590        C  0.10280557  0.37046224  0.80313303    -0.13000
C591        C  0.15662903  0.09098533  0.88790486    -0.11500
C592        C  0.15692003  0.12360310  0.88127997    -0.13000
C593        C  0.28021047  0.51887531  0.86468018    -0.11500
C594        C  0.30694498  0.51801089  0.85444173    -0.13000
C595        C  0.27451019  0.39264134  0.94802758    -0.11500
C596        C  0.29901968  0.36929256  0.95263811    -0.13000
C597        C  0.37995237  0.12047107  0.74828665    -0.11500
C598        C  0.38702636  0.08822618  0.75637202    -0.13000
C599        C  0.32585158  0.37361218  0.67017437    -0.11500
C600        C  0.32612861  0.34099572  0.66353292    -0.13000
C601        C  0.36419258  0.26676655  0.87356927    -0.11500
C602        C  0.36470778  0.25221881  0.83986768    -0.13000
C603        C  0.36161412  0.22465862  0.58101619    -0.11500
C604        C  0.36680509  0.23998709  0.55085636    -0.13000
C605        C  0.20254328  0.26887690  0.68675164    -0.11500
C606        C  0.17581317  0.26800694  0.69699735    -0.13000
C607        C  0.18373957  0.11929790  0.59877933    -0.11500
C608        C  0.20824497  0.14265088  0.60339170    -0.13000
C609        C  0.11857294  0.01676004  0.67784458    -0.11500
C610        C  0.11805296  0.50221462  0.71154584    -0.13000
C611        C  0.12112743  0.97466593  0.97039219    -0.11500
C612        C  0.11593809  0.99000118  0.50054861    -0.13000
C613        C  0.97452980  0.20847737  0.77332858    -0.11500
C614        C  0.00819957  0.20824918  0.77825356    -0.13000
C615        C  0.47463429  0.45830500  0.77327991    -0.11500
C616        C  0.50832072  0.45853368  0.77825195    -0.13000
C617        C  0.88718225  0.33910893  0.75657206    -0.11500
C618        C  0.88008412  0.37135585  0.74849405    -0.13000
C619        C  0.82624646  0.09189134  0.66369994    -0.12500
C620        C  0.82592993  0.12450776  0.67030158    -0.13000
C621        C  0.70270533  0.51983499  0.68696605    -0.11500
C622        C  0.67596771  0.51899590  0.69720091    -0.13000
C623        C  0.70836782  0.39357400  0.60354156    -0.11500
C624        C  0.68385066  0.37022306  0.59889013    -0.13000
C625        C  0.59572718  0.08912309  0.79511535    -0.11500
C626        C  0.60283301  0.12136629  0.80321060    -0.13000
C627        C  0.65668698  0.34189850  0.88797491    -0.11500
C628        C  0.65699027  0.37451402  0.88135613    -0.13000
C629        C  0.61866405  0.26769006  0.67794124    -0.11500
C630        C  0.61814192  0.25312954  0.71163436    -0.13000
C631        C  0.62116831  0.22560877  0.97045568    -0.11500
C632        C  0.61598547  0.24094597  0.50061548    -0.13000
C633        C  0.78021867  0.26982239  0.86470793    -0.11500
C634        C  0.80695156  0.26897868  0.85446532    -0.13000
C635        C  0.77456362  0.14357287  0.94816439    -0.11500
C636        C  0.79907858  0.12021901  0.95281688    -0.13000
C637        C  0.86478019  0.00312136  0.84007611    -0.11500
C638        C  0.86425741  0.01767658  0.87377109    -0.13000
C639        C  0.86696807  0.99094997  0.55111343    -0.11500
C640        C  0.86178438  0.97560790  0.58127044    -0.13000
C641        C  0.81945805  0.59217115  0.43771918     0.31800
C642        C  0.85048410  0.54230952  0.40022277     0.31800
C643        C  0.84228347  0.60814693  0.41224648    -0.04400
C644        C  0.85037630  0.56586331  0.47315925    -0.05200
C645        C  0.78949957  0.56547539  0.40255874    -0.05100
C646        C  0.85792490  0.58243275  0.39337113    -0.04400
C647        C  0.86652585  0.53939716  0.45354185    -0.05200
C648        C  0.80564147  0.54025977  0.38302061    -0.05100
C649        C  0.87506176  0.60087292  0.36957971    -0.30400
N650        N  0.87109319  0.63749476  0.37405503     0.16100
C651        C  0.85073078  0.64231236  0.39974895    -0.30500
H652        H  0.83968337  0.66847680  0.40519957     0.18000
C653        C  0.87544240  0.50865363  0.48192700    -0.29400
N654        N  0.86736576  0.51606323  0.51813747     0.14800
C655        C  0.85108678  0.54997125  0.51238237    -0.29400
C656        C  0.78057510  0.51049353  0.36919715    -0.29700
N657        N  0.74923600  0.51673153  0.37829419     0.15300
H658        H  0.78555638  0.98521271  0.35470686     0.17900
C659        C  0.75485424  0.54974281  0.39995417    -0.29700
H660        H  0.73568528  0.56122531  0.41366775     0.17900
H661        H  0.83620425  0.56050410  0.03203708     0.17900
H662        H  0.88670677  0.58857068  0.34746829     0.18000
H663        H  0.88269749  0.98161425  0.47379555     0.17900
O664        O  0.72757835  0.68899924  0.44422566    -0.80000
C665        C  0.62887412  0.73872328  0.25764925     0.99400
O666        O  0.65248914  0.71228456  0.27140986    -0.69100
O667        O  0.72150889  0.73805086  0.33144351    -0.72700
Al668      Al  0.69017182  0.69777450  0.33184641     1.49000
C669        C  0.74750984  0.75309113  0.36755450     0.94600
O670        O  0.69188239  0.78745269  0.41114120    -0.78900
O671        O  0.61377724  0.71783010  0.39458166    -0.72500
Al672      Al  0.70660877  0.73762703  0.42325027     1.90100
O673        O  0.62832572  0.78396642  0.36329636    -0.71600
O674        O  0.60352027  0.68517933  0.31575954    -0.71400
O675        O  0.61733942  0.75370108  0.28475303    -0.77100
O676        O  0.65958333  0.65641512  0.32968133    -0.75300
O677        O  0.67196353  0.72301352  0.36597225    -1.11400
O678        O  0.73399242  0.67514368  0.38177820    -0.70600
C679        C  0.74369836  0.67028294  0.42418136     1.00100
C680        C  0.65881966  0.80248731  0.38816538     0.96500
Al681      Al  0.62023297  0.73400493  0.34175688     1.55600
O682        O  0.74793685  0.74931906  0.40678323    -0.75200
C683        C  0.62269543  0.65606609  0.31707597     1.00700
C684        C  0.63654970  0.72274998  0.43701702     0.95600
O685        O  0.67240381  0.73063623  0.45079633    -0.80500
C686        C  0.66346811  0.84217807  0.11398895     0.31800
C687        C  0.63243862  0.79232201  0.15148871     0.31800
C688        C  0.64063229  0.85815705  0.13944583    -0.04400
C689        C  0.63255948  0.81586392  0.07855311    -0.05200
C690        C  0.69342641  0.81548920  0.14916331    -0.05100
C691        C  0.62498915  0.83244601  0.15832376    -0.04400
C692        C  0.61640872  0.78939988  0.09817190    -0.05200
C693        C  0.67728245  0.79027594  0.16870501    -0.05100
C694        C  0.60784731  0.85089053  0.18210576    -0.30400
N695        N  0.61181391  0.88751151  0.17762057     0.16100
C696        C  0.63218054  0.89232436  0.15193077    -0.30500
H697        H  0.64322941  0.91848675  0.14647734     0.18000
C698        C  0.60750266  0.75865217  0.06979647    -0.29400
N699        N  0.61558524  0.76605882  0.03358921     0.14800
C700        C  0.63185901  0.79996804  0.03933842    -0.29400
C701        C  0.70233830  0.76050125  0.18251358    -0.29700
N702        N  0.73366982  0.76672971  0.17340165     0.15300
H703        H  0.69735071  0.73521839  0.19699663     0.17900
C704        C  0.72805934  0.79974367  0.15174916    -0.29700
H705        H  0.74722245  0.81121758  0.13802228     0.17900
H706        H  0.64674275  0.81050041  0.01968469     0.17900
H707        H  0.59620198  0.83859226  0.20421980     0.18000
H708        H  0.60024797  0.73161355  0.07793158     0.17900
O709        O  0.75535969  0.93899334  0.10748103    -0.80000
C710        C  0.85404801  0.98872051  0.29405926     0.99400
O711        O  0.83042756  0.96228735  0.28029414    -0.69100
O712        O  0.76141364  0.98805904  0.22024591    -0.72700
Al713      Al  0.79275149  0.94777815  0.21985669     1.49000
C714        C  0.73541666  0.00309831  0.18412934     0.94600
O715        O  0.79105542  0.53744568  0.14054753    -0.78900
O716        O  0.86916440  0.96782674  0.15713935    -0.72500
Al717      Al  0.77632858  0.48762136  0.12844938     1.90100
O718        O  0.85460812  0.53396230  0.18841316    -0.71600
O719        O  0.87940719  0.93517200  0.23595633    -0.71400
O720        O  0.86558882  0.00369634  0.26695920    -0.77100
O721        O  0.82334027  0.90641527  0.22203390    -0.75300
O722        O  0.81096799  0.97301171  0.18573394    -1.11400
O723        O  0.74893392  0.92514785  0.16992417    -0.70600
C724        C  0.73923381  0.92028241  0.12752361     1.00100
C725        C  0.82411612  0.55248102  0.16352728     0.96500
Al726      Al  0.86269958  0.98400036  0.20995751     1.55600
O727        O  0.73499514  0.49932114  0.14490438    -0.75200
C728        C  0.86022808  0.90606097  0.23463852     1.00700
C729        C  0.84639608  0.97274318  0.11470186     0.95600
O730        O  0.81053930  0.48062430  0.10091401    -0.80500
O731        O  0.55302582  0.95988433  0.24662811    -0.80000
C732        C  0.71370928  0.99500903  0.35837744     0.99400
O733        O  0.68828697  0.99491059  0.37442941    -0.69100
O734        O  0.62658202  0.53483721  0.32840022    -0.72700
Al735      Al  0.63106011  0.98464451  0.34278242     1.49000
C736        C  0.59990640  0.55004131  0.29357061     0.94600
O737        O  0.62593837  0.51432959  0.22061005    -0.78900
O738        O  0.63288039  0.90778474  0.25268283    -0.72500
Al739      Al  0.59090740  0.98629274  0.23512346     1.90100
O740        O  0.66887789  0.96892040  0.23574495    -0.71600
O741        O  0.67745128  0.91440303  0.34046466    -0.71400
O742        O  0.70784965  0.97693126  0.32275699    -0.77100
O743        O  0.63512606  0.93533970  0.36414281    -0.75300
O744        O  0.63036230  0.97178149  0.28918234    -1.11400
O745        O  0.57411244  0.97823573  0.31966259    -0.70600
C746        C  0.54730079  0.96494722  0.28213795     1.00100
C747        C  0.65566307  0.00027087  0.21868059     0.96500
Al748      Al  0.66870285  0.94413698  0.28818807     1.55600
O749        O  0.57858653  0.53166463  0.25774089    -0.75200
C750        C  0.65713809  0.91012530  0.36226610     1.00700
C751        C  0.61140842  0.91385475  0.21045790     0.95600
O752        O  0.59450000  0.94482422  0.19769204    -0.80500
O753        O  0.92986153  0.70984789  0.30500017    -0.80000
C754        C  0.76918672  0.74499411  0.19329340     0.99400
O755        O  0.79460666  0.74491398  0.17724066    -0.69100
O756        O  0.85630963  0.78483258  0.22327318    -0.72700
Al757      Al  0.85182464  0.73464215  0.20886954     1.49000
C758        C  0.88299788  0.80002577  0.25810045     0.94600
O759        O  0.85697849  0.76430513  0.33105451    -0.78900
O760        O  0.85003107  0.65776214  0.29898813    -0.72500
Al761      Al  0.89199880  0.73626501  0.31652870     1.90100
O762        O  0.81402653  0.71890400  0.31591110    -0.71600
O763        O  0.80546851  0.66437327  0.21121090    -0.71400
O764        O  0.77504525  0.72689475  0.22889895    -0.77100
O765        O  0.84775102  0.68534564  0.18748623    -0.75300
O766        O  0.85253465  0.72176230  0.26247260    -1.11400
O767        O  0.90876130  0.72822451  0.23196993    -0.70600
C768        C  0.93557025  0.71491286  0.26947880     1.00100
C769        C  0.82724993  0.75025133  0.33298028     0.96500
Al770      Al  0.81420290  0.69411101  0.26347517     1.55600
O771        O  0.90432710  0.78163592  0.29391487    -0.75200
C772        C  0.82576522  0.66011588  0.18938637     1.00700
C773        C  0.87150000  0.66383406  0.34121199     0.95600
O774        O  0.88840913  0.69480221  0.35397050    -0.80500
C775        C  0.16336793  0.59125247  0.11389498     0.31800
C776        C  0.13234809  0.54138972  0.15139398     0.31800
C777        C  0.14052894  0.60722771  0.13935573    -0.04400
C778        C  0.13246608  0.56493270  0.07845929    -0.05200
C779        C  0.19333350  0.56456498  0.14906871    -0.05100
C780        C  0.12489009  0.58151051  0.15822986    -0.04400
C781        C  0.11631925  0.53846511  0.09807841    -0.05200
C782        C  0.17719337  0.53934840  0.16861227    -0.05100
C783        C  0.10774717  0.59994363  0.18202032    -0.30400
N784        N  0.11170813  0.63656682  0.17754875     0.16100
C785        C  0.13207417  0.64139057  0.15185716    -0.30500
H786        H  0.14312138  0.66755710  0.14641307     0.18000
C787        C  0.10743218  0.50771163  0.06971373    -0.29400
N788        N  0.11552319  0.51511638  0.03351260     0.14800
C789        C  0.13178371  0.54903091  0.03925596    -0.29400
C790        C  0.20224911  0.00957191  0.18241153    -0.29700
N791        N  0.23357584  0.51579950  0.17329069     0.15300
H792        H  0.19726477  0.98428856  0.19689586     0.17900
C793        C  0.22796271  0.54881646  0.15164249    -0.29700
H794        H  0.24712354  0.56029278  0.13791350     0.17900
H795        H  0.14667239  0.55956506  0.01960783     0.17900
H796        H  0.09610613  0.58763490  0.20413304     0.18000
H797        H  0.10018671  0.98067152  0.07785485     0.17900
O798        O  0.25521512  0.68808226  0.10728433    -0.80000
C799        C  0.35395091  0.73782374  0.29384545     0.99400
O800        O  0.33030836  0.71140791  0.28008482    -0.69100
O801        O  0.26128579  0.73715948  0.22004478    -0.72700
Al802      Al  0.29263102  0.69688446  0.21966264     1.49000
C803        C  0.23527524  0.75218030  0.18392372     0.94600
O804        O  0.29092239  0.78654758  0.14034148    -0.78900
O805        O  0.36901602  0.71691273  0.15689752    -0.72500
Al806      Al  0.27618920  0.73671545  0.12824116     1.90100
O807        O  0.35447954  0.78305505  0.18818645    -0.71600
O808        O  0.37928033  0.68427338  0.23572031    -0.71400
O809        O  0.36549125  0.75278895  0.26673917    -0.77100
O810        O  0.32321939  0.65552685  0.22184921    -0.75300
O811        O  0.31083808  0.72210977  0.18552385    -1.11400
O812        O  0.24881912  0.67424062  0.16974824    -0.70600
C813        C  0.23910630  0.66936925  0.12734667     1.00100
C814        C  0.32398684  0.80158081  0.16332271     0.96500
Al815      Al  0.36257195  0.73309391  0.20972582     1.55600
O816        O  0.23486042  0.74841205  0.14470182    -0.75200
C817        C  0.36010192  0.65517027  0.23442818     1.00700
C818        C  0.34623855  0.72181996  0.11446188     0.95600
O819        O  0.31038657  0.72971153  0.10068743    -0.80500
C820        C  0.31939467  0.84125133  0.43752120     0.31800
C821        C  0.35041745  0.79139444  0.40002042     0.31800
C822        C  0.34224317  0.85723012  0.41207428    -0.04400
C823        C  0.35028840  0.81492324  0.47295326    -0.05200
C824        C  0.28942936  0.81457282  0.40233554    -0.05100
C825        C  0.35788353  0.83151592  0.39319889    -0.04400
C826        C  0.36643569  0.78845782  0.45333379    -0.05200
C827        C  0.30557146  0.78935936  0.38278969    -0.05100
C828        C  0.37503271  0.84995283  0.36941819    -0.30400
N829        N  0.37107385  0.88657511  0.37389717     0.16100
C830        C  0.35070329  0.89139468  0.39958376    -0.30500
H831        H  0.33965558  0.91756007  0.40502969     0.18000
C832        C  0.37531590  0.75769997  0.48169289    -0.29400
N833        N  0.36722184  0.76510203  0.51789224     0.14800
C834        C  0.35096511  0.79901823  0.51215214    -0.29400
C835        C  0.28052385  0.75957827  0.36899956    -0.29700
N836        N  0.24920258  0.76579808  0.37813119     0.15300
H837        H  0.28551333  0.73429482  0.35452041     0.17900
C838        C  0.25480944  0.79881485  0.39977499    -0.29700
H839        H  0.23565300  0.81028325  0.41351405     0.17900
H840        H  0.33607722  0.80955247  0.03180100     0.17900
H841        H  0.38667464  0.83764824  0.34730497     0.18000
H842        H  0.38256141  0.73066075  0.47355047     0.17900
O843        O  0.22753317  0.93806684  0.44413362    -0.80000
C844        C  0.12880681  0.98782013  0.25756881     0.99400
O845        O  0.15245157  0.96140580  0.27133379    -0.69100
O846        O  0.22147034  0.98715634  0.33138019    -0.72700
Al847      Al  0.19012427  0.94687998  0.33175674     1.49000
C848        C  0.24747885  0.00217454  0.36750366     0.94600
O849        O  0.19182836  0.53653381  0.41108414    -0.78900
O850        O  0.11372997  0.96691109  0.39451368    -0.72500
Al851      Al  0.20656024  0.98670187  0.42317921     1.90100
O852        O  0.12827340  0.53305018  0.36322497    -0.71600
O853        O  0.10347250  0.93426663  0.31569486    -0.71400
O854        O  0.11726218  0.00278390  0.28467151    -0.77100
O855        O  0.15953488  0.90552202  0.32956458    -0.75300
O856        O  0.17191350  0.97210209  0.36589346    -1.11400
O857        O  0.23393416  0.92423310  0.38167176    -0.70600
C858        C  0.24364552  0.91935797  0.42407249     1.00100
C859        C  0.15876604  0.55157092  0.38810039     0.96500
Al860      Al  0.12017951  0.98308894  0.34168643     1.55600
O861        O  0.24789139  0.49840077  0.40672403    -0.75200
C862        C  0.12265250  0.90516391  0.31698674     1.00700
C863        C  0.13650597  0.97181569  0.43695002     0.95600
O864        O  0.17236000  0.47969724  0.45072797    -0.80500
O865        O  0.05295195  0.70901274  0.24667384    -0.80000
C866        C  0.21368800  0.74406026  0.35825110     0.99400
O867        O  0.18830700  0.74393273  0.37435986    -0.69100
O868        O  0.12666197  0.78394725  0.32832644    -0.72700
Al869      Al  0.13107054  0.73375621  0.34273143     1.49000
C870        C  0.09994458  0.79914131  0.29351692     0.94600
O871        O  0.12582553  0.76335476  0.22046830    -0.78900
O872        O  0.13279689  0.65683725  0.25262119    -0.72500
Al873      Al  0.09082737  0.73535938  0.23507470     1.90100
O874        O  0.16876824  0.71795034  0.23560653    -0.71600
O875        O  0.17739958  0.66349355  0.34040363    -0.71400
O876        O  0.20778970  0.72600362  0.32260380    -0.77100
O877        O  0.13506427  0.68444155  0.36406864    -0.75300
O878        O  0.13031232  0.72085807  0.28911049    -1.11400
O879        O  0.07412815  0.72748946  0.31966999    -0.70600
C880        C  0.04724305  0.71426132  0.28216477     1.00100
C881        C  0.15553647  0.74928994  0.21851679     0.96500
Al882      Al  0.16863043  0.69319805  0.28808811     1.55600
O883        O  0.07858383  0.78075869  0.25770893    -0.75200
C884        C  0.15707368  0.65921856  0.36219380     1.00700
C885        C  0.11129886  0.66289980  0.21039955     0.95600
O886        O  0.09436049  0.69385866  0.19764404    -0.80500
O887        O  0.42984638  0.95904350  0.30481244    -0.80000
C888        C  0.26909958  0.99407112  0.19319171     0.99400
O889        O  0.29448341  0.99393092  0.17708457    -0.69100
O890        O  0.35612651  0.53395121  0.22311426    -0.72700
Al891      Al  0.35172860  0.98375911  0.20872997     1.49000
C892        C  0.38283029  0.54915346  0.25792644     0.94600
O893        O  0.35693793  0.51336910  0.33097710    -0.78900
O894        O  0.34998427  0.90685173  0.29882731    -0.72500
Al895      Al  0.39195013  0.98537925  0.31638636     1.90100
O896        O  0.31401129  0.96795550  0.31584870    -0.71600
O897        O  0.30537479  0.91351704  0.21103993    -0.71400
O898        O  0.27499917  0.97602939  0.22885139    -0.77100
O899        O  0.34774480  0.93443859  0.18741350    -0.75300
O900        O  0.35247570  0.97087168  0.26234808    -1.11400
O901        O  0.40868237  0.97750091  0.23181115    -0.70600
C902        C  0.43557102  0.96429359  0.26933261     1.00100
C903        C  0.32723124  0.99929808  0.33293079     0.96500
Al904      Al  0.31415204  0.94321504  0.26336363     1.55600
O905        O  0.40418425  0.53078061  0.29374830    -0.75200
C906        C  0.32571363  0.90922799  0.18926787     1.00700
C907        C  0.37148244  0.91291183  0.34104977     0.95600
O908        O  0.38841697  0.94387181  0.35380987    -0.80500
C909        C  0.09573938  0.83821501  0.29505795    -0.11500
C910        C  0.10280579  0.87046226  0.30313317    -0.13000
C911        C  0.15662911  0.59098537  0.38790510    -0.11500
C912        C  0.15691991  0.62360315  0.38128004    -0.13000
C913        C  0.28021075  0.01887532  0.36468031    -0.11500
C914        C  0.30694523  0.01801088  0.35444181    -0.13000
C915        C  0.27451047  0.89264143  0.44802764    -0.11500
C916        C  0.29901995  0.86929265  0.45263819    -0.13000
C917        C  0.37995234  0.62047109  0.24828665    -0.11500
C918        C  0.38702649  0.58822623  0.25637209    -0.13000
C919        C  0.32585167  0.87361220  0.17017423    -0.11500
C920        C  0.32612871  0.84099574  0.16353277    -0.13000
C921        C  0.36419278  0.76676659  0.37356922    -0.11500
C922        C  0.36470813  0.75221880  0.33986772    -0.13000
C923        C  0.36161418  0.72465864  0.08101612    -0.11500
C924        C  0.36680525  0.73998705  0.05085633    -0.13000
C925        C  0.20254341  0.76887681  0.18675175    -0.11500
C926        C  0.17581333  0.76800707  0.19699753    -0.13000
C927        C  0.18373949  0.61929788  0.09877936    -0.11500
C928        C  0.20824488  0.64265086  0.10339176    -0.13000
C929        C  0.11857269  0.51676007  0.17784452    -0.11500
C930        C  0.11805307  0.00221470  0.21154592    -0.13000
C931        C  0.12112708  0.47466600  0.47039208    -0.11500
C932        C  0.11593786  0.49000133  0.00054850    -0.13000
C933        C  0.97453016  0.70847745  0.27332901    -0.11500
C934        C  0.00819990  0.70824927  0.27825396    -0.13000
C935        C  0.47463440  0.95830497  0.27327956    -0.11500
C936        C  0.50832082  0.95853373  0.27825158    -0.13000
C937        C  0.88718251  0.83910902  0.25657226    -0.11500
C938        C  0.88008424  0.87135594  0.24849417    -0.13000
C939        C  0.82624638  0.59189145  0.16370000    -0.12500
C940        C  0.82592997  0.62450786  0.17030166    -0.13000
C941        C  0.70270557  0.01983499  0.18696579    -0.11500
C942        C  0.67596796  0.01899592  0.19720072    -0.13000
C943        C  0.70836802  0.89357398  0.10354141    -0.11500
C944        C  0.68385083  0.87022309  0.09889014    -0.13000
C945        C  0.59572708  0.58912297  0.29511551    -0.11500
C946        C  0.60283292  0.62136618  0.30321045    -0.13000
C947        C  0.65668681  0.84189841  0.38797441    -0.11500
C948        C  0.65699028  0.87451397  0.38135601    -0.13000
C949        C  0.61866406  0.76769019  0.17794100    -0.11500
C950        C  0.61814208  0.75312956  0.21163416    -0.13000
C951        C  0.62116816  0.72560903  0.47045535    -0.11500
C952        C  0.61598536  0.74094605  0.00061532    -0.13000
C953        C  0.78021846  0.76982245  0.36470770    -0.11500
C954        C  0.80695134  0.76897884  0.35446509    -0.13000
C955        C  0.77456337  0.64357292  0.44816433    -0.11500
C956        C  0.79907843  0.62021921  0.45281687    -0.13000
C957        C  0.86477995  0.50312129  0.34007613    -0.11500
C958        C  0.86425720  0.51767668  0.37377104    -0.13000
C959        C  0.86696771  0.49094992  0.05111330    -0.11500
C960        C  0.86178412  0.47560794  0.08127044    -0.13000
C961        C  0.81945813  0.59217110  0.93771918     0.31800
C962        C  0.85048406  0.54230942  0.90022280     0.31800
C963        C  0.84228358  0.60814679  0.91224646    -0.04400
C964        C  0.85037638  0.56586337  0.97315930    -0.05200
C965        C  0.78949960  0.56547545  0.90255853    -0.05100
C966        C  0.85792481  0.58243260  0.89337104    -0.04400
C967        C  0.86652573  0.53939717  0.95354181    -0.05200
C968        C  0.80564150  0.54025969  0.88302068    -0.05100
C969        C  0.87506171  0.60087276  0.86957965    -0.30400
N970        N  0.87109331  0.63749462  0.87405505     0.16100
C971        C  0.85073079  0.64231228  0.89974890    -0.30500
H972        H  0.83968353  0.66847641  0.90519951     0.18000
C973        C  0.87544240  0.50865373  0.98192701    -0.29400
N974        N  0.86736573  0.51606335  0.01813743     0.14800
C975        C  0.85108667  0.54997128  0.01238225    -0.29400
C976        C  0.78057506  0.51049352  0.86919704    -0.29700
N977        N  0.74923604  0.51673146  0.87829416     0.15300
H978        H  0.78555692  0.98521247  0.85470701     0.17900
C979        C  0.75485423  0.54974288  0.89995407    -0.29700
H980        H  0.73568557  0.56122536  0.91366749     0.17900
H981        H  0.83620446  0.56050408  0.53203731     0.17900
H982        H  0.88670673  0.58857048  0.84746836     0.18000
H983        H  0.88269709  0.98161440  0.97379527     0.17900
O984        O  0.72757825  0.68899918  0.94422547    -0.80000
C985        C  0.62887416  0.73872340  0.75764927     0.99400
O986        O  0.65248909  0.71228462  0.77140970    -0.69100
O987        O  0.72150898  0.73805097  0.83144361    -0.72700
Al988      Al  0.69017191  0.69777451  0.83184631     1.49000
C989        C  0.74750991  0.75309114  0.86755458     0.94600
O990        O  0.69188248  0.78745262  0.91114130    -0.78900
O991        O  0.61377737  0.71783018  0.89458164    -0.72500
Al992      Al  0.70660878  0.73762701  0.92325024     1.90100
O993        O  0.62832579  0.78396644  0.86329633    -0.71600
O994        O  0.60352029  0.68517929  0.81575956    -0.71400
O995        O  0.61733940  0.75370106  0.78475309    -0.77100
O996        O  0.65958335  0.65641513  0.82968116    -0.75300
O997        O  0.67196360  0.72301352  0.86597208    -1.11400
O998        O  0.73399253  0.67514364  0.88177810    -0.70600
C999        C  0.74369822  0.67028278  0.92418118     1.00100
C1000       C  0.65881975  0.80248729  0.88816542     0.96500
Al1001     Al  0.62023299  0.73400491  0.84175677     1.55600
O1002       O  0.74793680  0.74931899  0.90678322    -0.75200
C1003       C  0.62269546  0.65606609  0.81707585     1.00700
C1004       C  0.63654982  0.72274994  0.93701706     0.95600
O1005       O  0.67240395  0.73063612  0.95079639    -0.80500
C1006       C  0.66346818  0.84217802  0.61398893     0.31800
C1007       C  0.63243864  0.79232209  0.65148873     0.31800
C1008       C  0.64063236  0.85815721  0.63944574    -0.04400
C1009       C  0.63255945  0.81586390  0.57855297    -0.05200
C1010       C  0.69342663  0.81548926  0.64916328    -0.05100
C1011       C  0.62498918  0.83244613  0.65832362    -0.04400
C1012       C  0.61640893  0.78939972  0.59817201    -0.05200
C1013       C  0.67728244  0.79027609  0.66870484    -0.05100
C1014       C  0.60784740  0.85089062  0.68210561    -0.30400
N1015       N  0.61181401  0.88751171  0.67762033     0.16100
C1016       C  0.63218066  0.89232456  0.65193072    -0.30500
H1017       H  0.64322958  0.91848736  0.64647726     0.18000
C1018       C  0.60750268  0.75865214  0.56979652    -0.29400
N1019       N  0.61558532  0.76605863  0.53358927     0.14800
C1020       C  0.63185893  0.79996791  0.53933835    -0.29400
C1021       C  0.70233827  0.76050150  0.68251353    -0.29700
N1022       N  0.73367000  0.76673004  0.67340158     0.15300
H1023       H  0.69735067  0.73521913  0.69699669     0.17900
C1024       C  0.72805950  0.79974376  0.65174901    -0.29700
H1025       H  0.74722310  0.81121804  0.63802215     0.17900
H1026       H  0.64674304  0.81050030  0.51968447     0.17900
H1027       H  0.59620198  0.83859239  0.70421918     0.18000
H1028       H  0.60024847  0.73161308  0.57793225     0.17900
O1029       O  0.75535971  0.93899345  0.60748116    -0.80000
C1030       C  0.85404800  0.98872042  0.79405937     0.99400
O1031       O  0.83042752  0.96228722  0.78029415    -0.69100
O1032       O  0.76141366  0.98805901  0.72024608    -0.72700
Al1033     Al  0.79275151  0.94777814  0.71985666     1.49000
C1034       C  0.73541670  0.00309837  0.68412955     0.94600
O1035       O  0.79105545  0.53744572  0.64054769    -0.78900
O1036       O  0.86916436  0.96782677  0.65713948    -0.72500
Al1037     Al  0.77632850  0.48762138  0.62844939     1.90100
O1038       O  0.85460814  0.53396234  0.68841335    -0.71600
O1039       O  0.87940718  0.93517194  0.73595646    -0.71400
O1040       O  0.86558881  0.00369635  0.76695942    -0.77100
O1041       O  0.82334014  0.90641533  0.72203384    -0.75300
O1042       O  0.81096804  0.97301172  0.68573388    -1.11400
O1043       O  0.74893380  0.92514790  0.66992410    -0.70600
C1044       C  0.73923381  0.92028244  0.62752363     1.00100
C1045       C  0.82411619  0.55248105  0.66352716     0.96500
Al1046     Al  0.86269954  0.98400039  0.70995761     1.55600
O1047       O  0.73499526  0.49932124  0.64490451    -0.75200
C1048       C  0.86022795  0.90606092  0.73463827     1.00700
C1049       C  0.84639605  0.97274331  0.61470193     0.95600
O1050       O  0.81053933  0.48062418  0.60091404    -0.80500
O1051       O  0.55302580  0.95988433  0.74662824    -0.80000
C1052       C  0.71370932  0.99500890  0.85837739     0.99400
O1053       O  0.68828696  0.99491063  0.87442933    -0.69100
O1054       O  0.62658202  0.53483718  0.82840014    -0.72700
Al1055     Al  0.63106009  0.98464440  0.84278238     1.49000
C1056       C  0.59990636  0.55004124  0.79357056     0.94600
O1057       O  0.62593832  0.51432969  0.72061000    -0.78900
O1058       O  0.63288042  0.90778467  0.75268284    -0.72500
Al1059     Al  0.59090745  0.98629273  0.73512354     1.90100
O1060       O  0.66887792  0.96892032  0.73574495    -0.71600
O1061       O  0.67745111  0.91440279  0.84046454    -0.71400
O1062       O  0.70784968  0.97693102  0.82275701    -0.77100
O1063       O  0.63512615  0.93533977  0.86414303    -0.75300
O1064       O  0.63036236  0.97178137  0.78918232    -1.11400
O1065       O  0.57411244  0.97823561  0.81966265    -0.70600
C1066       C  0.54730082  0.96494710  0.78213810     1.00100
C1067       C  0.65566322  0.00027088  0.71868082     0.96500
Al1068     Al  0.66870286  0.94413687  0.78818809     1.55600
O1069       O  0.57858654  0.53166450  0.75774086    -0.75200
C1070       C  0.65713809  0.91012528  0.86226620     1.00700
C1071       C  0.61140847  0.91385472  0.71045786     0.95600
O1072       O  0.59449991  0.94482416  0.69769195    -0.80500
O1073       O  0.92986149  0.70984789  0.80500017    -0.80000
C1074       C  0.76918676  0.74499414  0.69329337     0.99400
O1075       O  0.79460680  0.74491398  0.67724077    -0.69100
O1076       O  0.85630977  0.78483261  0.72327327    -0.72700
Al1077     Al  0.85182464  0.73464216  0.70886949     1.49000
C1078       C  0.88299794  0.80002584  0.75810049     0.94600
O1079       O  0.85697845  0.76430505  0.83105453    -0.78900
O1080       O  0.85003102  0.65776213  0.79898814    -0.72500
Al1081     Al  0.89199879  0.73626499  0.81652862     1.90100
O1082       O  0.81402639  0.71890416  0.81591111    -0.71600
O1083       O  0.80546836  0.66437328  0.71121092    -0.71400
O1084       O  0.77504524  0.72689479  0.72889883    -0.77100
O1085       O  0.84775095  0.68534567  0.68748623    -0.75300
O1086       O  0.85253472  0.72176229  0.76247252    -1.11400
O1087       O  0.90876125  0.72822452  0.73196991    -0.70600
C1088       C  0.93557019  0.71491289  0.76947881     1.00100
C1089       C  0.82724995  0.75025131  0.83298046     0.96500
Al1090     Al  0.81420294  0.69411108  0.76347523     1.55600
O1091       O  0.90432703  0.78163601  0.79391488    -0.75200
C1092       C  0.82576509  0.66011594  0.68938635     1.00700
C1093       C  0.87149990  0.66383403  0.84121201     0.95600
O1094       O  0.88840913  0.69480214  0.85397049    -0.80500
C1095       C  0.16336791  0.59125246  0.61389486     0.31800
C1096       C  0.13234813  0.54138977  0.65139396     0.31800
C1097       C  0.14052900  0.60722777  0.63935564    -0.04400
C1098       C  0.13246604  0.56493267  0.57845929    -0.05200
C1099       C  0.19333355  0.56456516  0.64906878    -0.05100
C1100       C  0.12489023  0.58151061  0.65822969    -0.04400
C1101       C  0.11631938  0.53846522  0.59807848    -0.05200
C1102       C  0.17719337  0.53934850  0.66861218    -0.05100
C1103       C  0.10774715  0.59994371  0.68201997    -0.30400
N1104       N  0.11170822  0.63656702  0.67754855     0.16100
C1105       C  0.13207417  0.64139068  0.65185699    -0.30500
H1106       H  0.14312131  0.66755729  0.64641264     0.18000
C1107       C  0.10743217  0.50771175  0.56971379    -0.29400
N1108       N  0.11552310  0.51511648  0.53351258     0.14800
C1109       C  0.13178370  0.54903098  0.53925586    -0.29400
C1110       C  0.20224908  0.00957191  0.68241150    -0.29700
N1111       N  0.23357582  0.51579963  0.67329058     0.15300
H1112       H  0.19726501  0.98428857  0.69689652     0.17900
C1113       C  0.22796267  0.54881660  0.65164234    -0.29700
H1114       H  0.24712374  0.56029321  0.63791395     0.17900
H1115       H  0.14667200  0.55956503  0.51960797     0.17900
H1116       H  0.09610642  0.58763503  0.70413226     0.18000
H1117       H  0.10018633  0.98067131  0.57785514     0.17900
O1118       O  0.25521525  0.68808232  0.60728445    -0.80000
C1119       C  0.35395100  0.73782372  0.79384536     0.99400
O1120       O  0.33030832  0.71140796  0.78008465    -0.69100
O1121       O  0.26128575  0.73715956  0.72004470    -0.72700
Al1122     Al  0.29263102  0.69688452  0.71966253     1.49000
C1123       C  0.23527519  0.75218033  0.68392365     0.94600
O1124       O  0.29092239  0.78654754  0.64034146    -0.78900
O1125       O  0.36901599  0.71691275  0.65689733    -0.72500
Al1126     Al  0.27618918  0.73671548  0.62824106     1.90100
O1127       O  0.35447969  0.78305503  0.68818640    -0.71600
O1128       O  0.37928025  0.68427338  0.73572026    -0.71400
O1129       O  0.36549126  0.75278900  0.76673903    -0.77100
O1130       O  0.32321943  0.65552688  0.72184918    -0.75300
O1131       O  0.31083814  0.72210979  0.68552365    -1.11400
O1132       O  0.24881916  0.67424068  0.66974822    -0.70600
C1133       C  0.23910633  0.66936933  0.62734666     1.00100
C1134       C  0.32398690  0.80158076  0.66332271     0.96500
Al1135     Al  0.36257201  0.73309392  0.70972574     1.55600
O1136       O  0.23486037  0.74841210  0.64470175    -0.75200
C1137       C  0.36010192  0.65517028  0.73442820     1.00700
C1138       C  0.34623849  0.72181997  0.61446179     0.95600
O1139       O  0.31038654  0.72971159  0.60068755    -0.80500
C1140       C  0.31939466  0.84125130  0.93752130     0.31800
C1141       C  0.35041737  0.79139447  0.90002040     0.31800
C1142       C  0.34224309  0.85723018  0.91207435    -0.04400
C1143       C  0.35028825  0.81492310  0.97295341    -0.05200
C1144       C  0.28942925  0.81457285  0.90233577    -0.05100
C1145       C  0.35788336  0.83151597  0.89319884    -0.04400
C1146       C  0.36643566  0.78845766  0.95333379    -0.05200
C1147       C  0.30557133  0.78935949  0.88278961    -0.05100
C1148       C  0.37503273  0.84995285  0.86941830    -0.30400
N1149       N  0.37107369  0.88657521  0.87389712     0.16100
C1150       C  0.35070319  0.89139473  0.89958376    -0.30500
H1151       H  0.33965499  0.91756022  0.90502941     0.18000
C1152       C  0.37531582  0.75769997  0.98169290    -0.29400
N1153       N  0.36722183  0.76510202  0.01789233     0.14800
C1154       C  0.35096515  0.79901812  0.01215232    -0.29400
C1155       C  0.28052371  0.75957844  0.86899953    -0.29700
N1156       N  0.24920243  0.76579827  0.87813127     0.15300
H1157       H  0.28551312  0.73429494  0.85452021     0.17900
C1158       C  0.25480928  0.79881495  0.89977497    -0.29700
H1159       H  0.23565264  0.81028330  0.91351459     0.17900
H1160       H  0.33607721  0.80955232  0.53179991     0.17900
H1161       H  0.38667396  0.83764817  0.84730456     0.18000
H1162       H  0.38256152  0.73066025  0.97355043     0.17900
O1163       O  0.22753317  0.93806687  0.94413375    -0.80000
C1164       C  0.12880681  0.98781998  0.75756884     0.99400
O1165       O  0.15245178  0.96140580  0.77133394    -0.69100
O1166       O  0.22147040  0.98715634  0.83138048    -0.72700
Al1167     Al  0.19012435  0.94688000  0.83175682     1.49000
C1168       C  0.24747887  0.00217462  0.86750383     0.94600
O1169       O  0.19182830  0.53653380  0.91108400    -0.78900
O1170       O  0.11372996  0.96691107  0.89451380    -0.72500
Al1171     Al  0.20656024  0.98670186  0.92317923     1.90100
O1172       O  0.12827353  0.53305021  0.86322503    -0.71600
O1173       O  0.10347260  0.93426655  0.81569509    -0.71400
O1174       O  0.11726216  0.00278377  0.78467155    -0.77100
O1175       O  0.15953502  0.90552193  0.82956462    -0.75300
O1176       O  0.17191346  0.97210217  0.86589341    -1.11400
O1177       O  0.23393424  0.92423316  0.88167182    -0.70600
C1178       C  0.24364552  0.91935798  0.92407257     1.00100
C1179       C  0.15876602  0.55157095  0.88810049     0.96500
Al1180     Al  0.12017946  0.98308891  0.84168646     1.55600
O1181       O  0.24789143  0.49840079  0.90672411    -0.75200
C1182       C  0.12265264  0.90516385  0.81698682     1.00700
C1183       C  0.13650602  0.97181569  0.93695015     0.95600
O1184       O  0.17235991  0.47969723  0.95072794    -0.80500
O1185       O  0.05295199  0.70901262  0.74667393    -0.80000
C1186       C  0.21368793  0.74406028  0.85825115     0.99400
O1187       O  0.18830693  0.74393258  0.87435986    -0.69100
O1188       O  0.12666204  0.78394712  0.82832660    -0.72700
Al1189     Al  0.13107063  0.73375618  0.84273154     1.49000
C1190       C  0.09994467  0.79914120  0.79351698     0.94600
O1191       O  0.12582545  0.76335470  0.72046841    -0.78900
O1192       O  0.13279706  0.65683715  0.75262122    -0.72500
Al1193     Al  0.09082735  0.73535936  0.73507480     1.90100
O1194       O  0.16876830  0.71795027  0.73560652    -0.71600
O1195       O  0.17739967  0.66349359  0.84040376    -0.71400
O1196       O  0.20778963  0.72600372  0.82260386    -0.77100
O1197       O  0.13506418  0.68444147  0.86406868    -0.75300
O1198       O  0.13031243  0.72085811  0.78911062    -1.11400
O1199       O  0.07412822  0.72748936  0.81967019    -0.70600
C1200       C  0.04724299  0.71426143  0.78216479     1.00100
C1201       C  0.15553655  0.74928996  0.71851702     0.96500
Al1202     Al  0.16863050  0.69319802  0.78808817     1.55600
O1203       O  0.07858381  0.78075860  0.75770896    -0.75200
C1204       C  0.15707360  0.65921850  0.86219373     1.00700
C1205       C  0.11129885  0.66289974  0.71039959     0.95600
O1206       O  0.09436047  0.69385862  0.69764408    -0.80500
O1207       O  0.42984628  0.95904340  0.80481244    -0.80000
C1208       C  0.26909956  0.99407106  0.69319157     0.99400
O1209       O  0.29448342  0.99393074  0.67708448    -0.69100
O1210       O  0.35612659  0.53395124  0.72311416    -0.72700
Al1211     Al  0.35172861  0.98375908  0.70872999     1.49000
C1212       C  0.38283032  0.54915344  0.75792640     0.94600
O1213       O  0.35693782  0.51336914  0.83097693    -0.78900
O1214       O  0.34998425  0.90685177  0.79882709    -0.72500
Al1215     Al  0.39195010  0.98537923  0.81638631     1.90100
O1216       O  0.31401122  0.96795548  0.81584870    -0.71600
O1217       O  0.30537478  0.91351698  0.71103985    -0.71400
O1218       O  0.27499922  0.97602946  0.72885129    -0.77100
O1219       O  0.34774488  0.93443857  0.68741352    -0.75300
O1220       O  0.35247570  0.97087155  0.76234809    -1.11400
O1221       O  0.40868242  0.97750078  0.73181122    -0.70600
C1222       C  0.43557106  0.96429350  0.76933270     1.00100
C1223       C  0.32723117  0.99929811  0.83293063     0.96500
Al1224     Al  0.31415200  0.94321499  0.76336358     1.55600
O1225       O  0.40418419  0.53078052  0.79374825    -0.75200
C1226       C  0.32571368  0.90922796  0.68926784     1.00700
C1227       C  0.37148235  0.91291190  0.84104962     0.95600
O1228       O  0.38841700  0.94387186  0.85380986    -0.80500
C1229       C  0.09573946  0.83821496  0.79505802    -0.11500
C1230       C  0.10280596  0.87046220  0.80313336    -0.13000
C1231       C  0.15662898  0.59098538  0.88790496    -0.11500
C1232       C  0.15692004  0.62360315  0.88128014    -0.13000
C1233       C  0.28021076  0.01887533  0.86468037    -0.11500
C1234       C  0.30694518  0.01801085  0.85444174    -0.13000
C1235       C  0.27451051  0.89264140  0.94802776    -0.11500
C1236       C  0.29901996  0.86929260  0.95263823    -0.13000
C1237       C  0.37995229  0.62047111  0.74828667    -0.11500
C1238       C  0.38702639  0.58822624  0.75637208    -0.13000
C1239       C  0.32585163  0.87361215  0.67017421    -0.11500
C1240       C  0.32612869  0.84099569  0.66353277    -0.13000
C1241       C  0.36419271  0.76676655  0.87356924    -0.11500
C1242       C  0.36470808  0.75221892  0.83986764    -0.13000
C1243       C  0.36161422  0.72465861  0.58101612    -0.11500
C1244       C  0.36680512  0.73998701  0.55085620    -0.13000
C1245       C  0.20254340  0.76887679  0.68675169    -0.11500
C1246       C  0.17581333  0.76800699  0.69699750    -0.13000
C1247       C  0.18373956  0.61929785  0.59877938    -0.11500
C1248       C  0.20824497  0.64265083  0.60339169    -0.13000
C1249       C  0.11857270  0.51676016  0.67784454    -0.11500
C1250       C  0.11805309  0.00221458  0.71154588    -0.13000
C1251       C  0.12112708  0.47466610  0.97039194    -0.11500
C1252       C  0.11593778  0.49000136  0.50054853    -0.13000
C1253       C  0.97453005  0.70847746  0.77332901    -0.11500
C1254       C  0.00819978  0.70824916  0.77825390    -0.13000
C1255       C  0.47463448  0.95830498  0.77327967    -0.11500
C1256       C  0.50832089  0.95853376  0.77825171    -0.13000
C1257       C  0.88718266  0.83910903  0.75657222    -0.11500
C1258       C  0.88008424  0.87135592  0.74849410    -0.13000
C1259       C  0.82624623  0.59189151  0.66369994    -0.12500
C1260       C  0.82592995  0.62450793  0.67030167    -0.13000
C1261       C  0.70270561  0.01983502  0.68696591    -0.11500
C1262       C  0.67596798  0.01899593  0.69720075    -0.13000
C1263       C  0.70836807  0.89357397  0.60354147    -0.11500
C1264       C  0.68385083  0.87022306  0.59888998    -0.13000
C1265       C  0.59572714  0.58912297  0.79511547    -0.11500
C1266       C  0.60283302  0.62136617  0.80321048    -0.13000
C1267       C  0.65668677  0.84189843  0.88797449    -0.11500
C1268       C  0.65699026  0.87451395  0.88135592    -0.13000
C1269       C  0.61866410  0.76769018  0.67794097    -0.11500
C1270       C  0.61814203  0.75312955  0.71163408    -0.13000
C1271       C  0.62116815  0.72560906  0.97045539    -0.11500
C1272       C  0.61598535  0.74094591  0.50061530    -0.13000
C1273       C  0.78021852  0.76982243  0.86470774    -0.11500
C1274       C  0.80695133  0.76897874  0.85446507    -0.13000
C1275       C  0.77456339  0.64357292  0.94816422    -0.11500
C1276       C  0.79907829  0.62021906  0.95281669    -0.13000
C1277       C  0.86477989  0.50312137  0.84007606    -0.11500
C1278       C  0.86425721  0.51767666  0.87377105    -0.13000
C1279       C  0.86696749  0.49094978  0.55111315    -0.11500
C1280       C  0.86178411  0.47560796  0.58127049    -0.13000
loop_ 
_geom_bond_atom_site_label_1 
_geom_bond_atom_site_label_2 
_geom_bond_distance 
_geom_bond_site_symmetry_2 
_ccdc_geom_bond_type 
C1            C3   1.539       .  S
C1            C5   1.535       .  S
C1            C4   1.545       .  S
C1          C316   1.481       .  S
C2            C6   1.519       .  S
C2            C8   1.528       .  S
C2            C7   1.545       .  S
C2          C318   1.477       .  S
C3           C11   1.385       .  A
C3            C6   1.380       .  A
C4           C15   1.375       .  A
C4            C7   1.426       .  A
C5           C19   1.393       .  A
C5            C8   1.393       .  A
C6            C9   1.374       .  A
C7           C13   1.385       .  A
C8           C16   1.373       .  A
C9           N10   1.354       .  A
C9           H22   1.083       .  S
N10          C11   1.364       .  A
N10         C133   1.429       .  S
C11          H12   1.083       .  S
C13          N14   1.353       .  A
C13         H663   1.082   1_545  S
N14          C15   1.352       .  A
N14         C639   1.403   1_545  S
C15         H341   1.083       .  S
C16          N17   1.355       .  A
C16         H658   1.083   1_545  S
N17          C19   1.355       .  A
N17         C732   1.436   1_545  S
H18         C656   1.083       .  S
C19          H20   1.083       .  S
H21         C335   1.083       .  S
H23         C653   1.082       .  S
O24          C39   1.262       .  A
O24         Al32   1.931       .  S
C25          O35   1.256       .  A
C25          O26   1.249       .  A
C25         C310   1.445       .  S
O26         Al28   1.900       .  S
O27          C29   1.262       .  A
O27         Al28   1.884       .  S
Al28         O36   1.876       .  S
Al28         O38   1.903       .  S
Al28         O37   1.783       .  S
C29          O42   1.260       .  A
C29         C313   1.413       .  S
O30          C40   1.256       .  A
O30         Al32   1.883       .  S
O31          C44   1.259       .  A
O31         Al41   1.910       .  S
Al32         O45   1.876       .  S
Al32         O42   1.901       .  S
Al32         O37   1.798       .  S
O33          C40   1.263       .  A
O33         Al41   1.918       .  S
O34          C43   1.271       .  A
O34         Al41   1.943       .  S
O35         Al41   1.922       .  S
O36          C43   1.263       .  A
O37         Al41   1.793       .  S
O38          C39   1.255       .  A
C39         C315   1.446       .  S
C40         C307   1.434       .  S
C43         C306   1.433       .  S
C44          O45   1.254       .  A
C44         C311   1.432       .  S
C46          C48   1.539       .  S
C46          C50   1.535       .  S
C46          C49   1.545       .  S
C46         C304   1.481       .  S
C47          C51   1.519       .  S
C47          C53   1.528       .  S
C47          C52   1.545       .  S
C47         C309   1.477       .  S
C48          C56   1.385       .  A
C48          C51   1.380       .  A
C49          C60   1.375       .  A
C49          C52   1.425       .  A
C50          C64   1.393       .  A
C50          C53   1.393       .  A
C51          C54   1.374       .  A
C52          C58   1.385       .  A
C53          C61   1.373       .  A
C54          N55   1.354       .  A
C54          H67   1.083       .  S
N55          C56   1.364       .  A
N55         C111   1.429       .  S
C56          H57   1.083       .  S
C58          N59   1.353       .  A
C58          H68   1.082       .  S
N59          C60   1.352       .  A
N59         C312   1.403       .  S
C60          H66   1.083       .  S
C61          N62   1.355       .  A
C61          H63   1.083       .  S
N62          C64   1.355       .  A
N62         C114   1.436       .  S
C64          H65   1.083       .  S
O69          C84   1.262       .  A
O69        Al717   1.931       .  S
C70          O80   1.256       .  A
C70          O71   1.249       .  A
C70         C957   1.445       .  S
O71         Al73   1.900       .  S
O72          C74   1.262       .  A
O72         Al73   1.884       .  S
Al73         O81   1.876       .  S
Al73         O83   1.903       .  S
Al73         O82   1.783       .  S
C74         O727   1.260       .  A
C74         C301   1.413       .  S
O75          C85   1.256       .  A
O75         Al77   1.883   1_545  S
O76          C89   1.259       .  A
O76         Al86   1.910       .  S
Al77         O90   1.876       .  S
Al77         O87   1.901       .  S
Al77        O709   1.931       .  S
Al77        O722   1.798       .  S
O78          C85   1.263       .  A
O78        Al726   1.918   1_545  S
O79          C88   1.271       .  A
O79         Al86   1.943       .  S
O80         Al86   1.922       .  S
O81          C88   1.263       .  A
O82         Al86   1.793       .  S
O82        Al717   1.798       .  S
O83          C84   1.255       .  A
C84         C303   1.446       .  S
C85         C299   1.434       .  S
Al86        O718   1.918       .  S
O87         C714   1.260   1_565  A
C88         C298   1.433       .  S
C89         O730   1.254       .  A
C89         C960   1.432       .  S
O90         C729   1.254       .  A
O91         C106   1.264       .  A
O91         Al99   1.887       .  S
C92         N657   1.436       .  S
C92         O102   1.250       .  A
C92          O93   1.273       .  A
O93         Al95   1.968       .  S
O94          C96   1.252       .  A
O94        Al735   1.871   1_545  S
Al95        O103   1.900       .  S
Al95        O105   1.948       .  S
Al95        O734   1.871       .  S
Al95        O104   1.772       .  S
C96         O109   1.262       .  A
C96         C305   1.432       .  S
O97         C747   1.257       .  A
O97        Al739   1.882   1_545  S
O98         C111   1.251       .  A
O98        Al108   1.871       .  S
Al99        O112   1.969       .  S
Al99        O737   1.882       .  S
Al99        O749   1.939       .  S
Al99        O104   1.791       .  S
O100        C107   1.266       .  A
O100       Al108   1.912       .  S
O101        C110   1.255       .  A
O101       Al108   1.898       .  S
O102       Al108   1.836       .  S
O103        C110   1.255       .  A
O104       Al108   1.771       .  S
O105        C106   1.274       .  A
C106        C296   1.437       .  S
C107        O737   1.257       .  A
C107        C302   1.411       .  S
O109       Al739   1.939   1_545  S
C110        C308   1.433       .  S
C111        O112   1.268       .  A
O113        C128   1.264       .  A
O113       Al121   1.887       .  S
C114        O124   1.250       .  A
C114        O115   1.273       .  A
O115       Al117   1.968       .  S
O116        C118   1.252       .  A
O116       Al117   1.871       .  S
Al117       O125   1.900       .  S
Al117       O127   1.947       .  S
Al117       O126   1.772       .  S
C118        O131   1.262       .  A
C118        C297   1.432       .  S
O119        C129   1.257       .  A
O119       Al121   1.882       .  S
O120        C133   1.251       .  A
O120       Al130   1.871       .  S
Al121       O134   1.969       .  S
Al121       O131   1.939       .  S
Al121       O126   1.791       .  S
O122        C129   1.266       .  A
O122       Al130   1.912       .  S
O123        C132   1.255       .  A
O123       Al130   1.897       .  S
O124       Al130   1.836       .  S
O125        C132   1.255       .  A
O126       Al130   1.771       .  S
O127        C128   1.274       .  A
C128        C293   1.436       .  S
C129        C314   1.411       .  S
C132        C300   1.433       .  S
C133        O134   1.268       .  A
C135        C137   1.540       .  S
C135        C139   1.535       .  S
C135        C138   1.545       .  S
C135        C287   1.481       .  S
C136        C140   1.519       .  S
C136        C142   1.528       .  S
C136        C141   1.545       .  S
C136        C289   1.477       .  S
C137        C145   1.385       .  A
C137        C140   1.380       .  A
C138        C149   1.375       .  A
C138        C141   1.425       .  A
C139        C153   1.393       .  A
C139        C142   1.394       .  A
C140        C143   1.374       .  A
C141        C147   1.385       .  A
C142        C790   1.374       .  A
C143        N144   1.354       .  A
C143        H156   1.083       .  S
N144        C145   1.364       .  A
N144        C245   1.429       .  S
C145        H146   1.083       .  S
C147        N148   1.353       .  A
C147        H797   1.082   1_545  S
N148        C149   1.352       .  A
N148        C292   1.403   1_545  S
C149        H155   1.083       .  S
C150        C782   1.374       .  A
C150        N791   1.355       .  A
C150        H152   1.083       .  S
N151        C153   1.355       .  A
N151        C790   1.355       .  A
N151        C888   1.436   1_545  S
C153        H154   1.083       .  S
H157        C787   1.082       .  S
O158        C173   1.262       .  A
O158       Al166   1.931       .  S
C159        O169   1.256       .  A
C159        O160   1.249       .  A
C159        C282   1.445       .  S
O160       Al162   1.900       .  S
O161        C163   1.262       .  A
O161       Al162   1.884       .  S
Al162       O170   1.876       .  S
Al162       O172   1.902       .  S
Al162       O171   1.783       .  S
C163        O176   1.260       .  A
C163        C285   1.413       .  S
O164        C174   1.256       .  A
O164       Al166   1.883       .  S
O165        C178   1.259       .  A
O165       Al175   1.910       .  S
Al166       O179   1.876       .  S
Al166       O176   1.901       .  S
Al166       O171   1.798       .  S
O167        C174   1.263       .  A
O167       Al175   1.918       .  S
O168        C177   1.271       .  A
O168       Al175   1.942       .  S
O169       Al175   1.922       .  S
O170        C177   1.263       .  A
O171       Al175   1.793       .  S
O172        C173   1.255       .  A
C173        C288   1.446       .  S
C174        C280   1.434       .  S
C177        C277   1.432       .  S
C178        O179   1.254       .  A
C178        C283   1.432       .  S
C180        C182   1.539       .  S
C180        C184   1.535       .  S
C180        C183   1.545       .  S
C180        C276   1.481       .  S
C181        C185   1.519       .  S
C181        C187   1.528       .  S
C181        C186   1.545       .  S
C181        C281   1.477       .  S
C182        C190   1.385       .  A
C182        C185   1.380       .  A
C183        C194   1.375       .  A
C183        C186   1.425       .  A
C184        C198   1.393       .  A
C184        C187   1.394       .  A
C185        C188   1.374       .  A
C186        C192   1.385       .  A
C187        C195   1.373       .  A
C188        N189   1.354       .  A
C188        H201   1.083       .  S
N189        C190   1.364       .  A
N189        C267   1.429       .  S
C190        H191   1.083       .  S
C192        N193   1.353       .  A
C192        H202   1.082       .  S
N193        C194   1.352       .  A
N193        C604   1.403       .  S
C194        H520   1.083       .  S
C195        N196   1.355       .  A
C195        H197   1.083       .  S
N196        C198   1.355       .  A
N196        C226   1.436       .  S
C198        H199   1.083       .  S
H200        C514   1.083       .  S
O203        C218   1.262       .  A
O203       Al211   1.931       .  S
C204        O214   1.256       .  A
C204        O205   1.249       .  A
C204        C290   1.445       .  S
O205       Al207   1.900       .  S
O206        C208   1.262       .  A
O206       Al207   1.884       .  S
Al207       O215   1.876       .  S
Al207       O217   1.902       .  S
Al207       O216   1.783       .  S
C208        O861   1.260       .  A
C208        C273   1.413       .  S
O209        C219   1.256       .  A
O209       Al851   1.883   1_545  S
O210        C223   1.259       .  A
O210       Al220   1.910       .  S
Al211       O849   1.883       .  S
Al211       O864   1.876       .  S
Al211       O861   1.901       .  S
Al211       O216   1.798       .  S
O212        C219   1.263       .  A
O212       Al860   1.918   1_545  S
O213        C222   1.271       .  A
O213       Al220   1.942       .  S
O214       Al220   1.922       .  S
O215        C222   1.263       .  A
O216       Al220   1.793       .  S
O217        C218   1.255       .  A
C218        C275   1.446       .  S
C219        C271   1.434       .  S
Al220       O852   1.918       .  S
O221        C848   1.260   1_565  A
O221       Al851   1.901       .  S
C222        C270   1.432       .  S
C223        O864   1.254       .  A
C223        C931   1.432       .  S
O224        C863   1.254       .  A
O224       Al851   1.876       .  S
O225        C240   1.264       .  A
O225       Al233   1.888       .  S
C226        O236   1.250       .  A
C226        O227   1.273       .  A
O227       Al229   1.968       .  S
O228        C230   1.252       .  A
O228       Al229   1.871       .  S
Al229       O237   1.900       .  S
Al229       O239   1.947       .  S
Al229       O238   1.772       .  S
C230        O243   1.262       .  A
C230        C269   1.432       .  S
O231        C241   1.257       .  A
O231       Al233   1.882       .  S
O232        C245   1.251       .  A
O232       Al242   1.871       .  S
Al233       O246   1.969       .  S
Al233       O243   1.939       .  S
Al233       O238   1.791       .  S
O234        C241   1.266       .  A
O234       Al242   1.912       .  S
O235        C244   1.255       .  A
O235       Al242   1.898       .  S
O236       Al242   1.837       .  S
O237        C244   1.255       .  A
O238       Al242   1.771       .  S
O239        C240   1.274       .  A
C240        C294   1.436       .  S
C241        C286   1.411       .  S
C244        C272   1.433       .  S
C245        O246   1.268       .  A
O247        C262   1.264       .  A
O247       Al255   1.888       .  S
C248        N791   1.436       .  S
C248        O258   1.250       .  A
C248        O249   1.273       .  A
O249       Al251   1.968       .  S
O250        C252   1.252       .  A
O250       Al891   1.871   1_545  S
Al251       O259   1.900       .  S
Al251       O261   1.947       .  S
Al251       O890   1.871       .  S
Al251       O260   1.772       .  S
C252        O265   1.262       .  A
C252        C278   1.432       .  S
O253        C903   1.257   1_545  A
O253       Al895   1.882   1_545  S
O254        C267   1.251       .  A
O254       Al264   1.871       .  S
Al255       O268   1.969       .  S
Al255       O893   1.882       .  S
Al255       O905   1.939       .  S
Al255       O260   1.791       .  S
O256        C263   1.266       .  A
O256       Al264   1.912       .  S
O257        C266   1.255       .  A
O257       Al264   1.898       .  S
O258       Al264   1.837       .  S
O259        C266   1.255       .  A
O260       Al264   1.771       .  S
O261        C262   1.274       .  A
C262        C295   1.437       .  S
C263        O893   1.257       .  A
C263        C274   1.411       .  S
O265       Al895   1.939   1_545  S
C266        C279   1.433       .  S
C267        O268   1.268       .  A
C269        C270   1.204       .  T
C271        C272   1.205       .  T
C273        C274   1.191       .  T
C275        C276   1.214       .  T
C277        C278   1.204       .  T
C279        C280   1.205       .  T
C281        C282   1.212       .  T
C283        C284   1.206       .  T
C284        N513   1.403       .  S
C285        C286   1.191       .  T
C287        C288   1.214       .  T
C289        C930   1.212       .  T
C290        C929   1.212       .  T
C291        C863   1.432       .  S
C291        C612   1.206       .  T
C292        C611   1.206   1_554  T
C293        C294   1.207   1_655  T
C295        C296   1.207       .  T
C297        C298   1.204       .  T
C299        C300   1.205       .  T
C301        C302   1.191       .  T
C303        C304   1.214       .  T
C305        C306   1.204       .  T
C307        C308   1.205       .  T
C309        C310   1.212       .  T
C311        C632   1.206       .  T
C312        C631   1.206   1_554  T
C313        C314   1.191       .  T
C315        C316   1.214       .  T
C317        C710   1.445   1_545  S
C317        C318   1.212       .  T
C319        N334   1.403   1_565  S
C319        C320   1.206       .  T
C320        C729   1.432       .  S
C321        C323   1.539       .  S
C321        C325   1.535       .  S
C321        C324   1.545       .  S
C321        C636   1.481       .  S
C322        C326   1.519       .  S
C322        C328   1.528       .  S
C322        C327   1.545       .  S
C322        C638   1.477       .  S
C323        C331   1.385       .  A
C323        C326   1.380       .  A
C324        C335   1.375   1_556  A
C324        C327   1.426       .  A
C325        C339   1.393       .  A
C325        C328   1.393       .  A
C326        C329   1.374       .  A
C327        C333   1.385       .  A
C328        C336   1.373       .  A
C329        N330   1.354       .  A
C329        H342   1.083       .  S
N330        C331   1.364       .  A
N330        C453   1.429       .  S
C331        H332   1.083       .  S
C333        N334   1.353   1_556  A
C333        H983   1.082   1_545  S
N334        C335   1.352       .  A
C336        N337   1.355       .  A
C336        H978   1.083   1_545  S
N337        C339   1.355       .  A
N337       C1052   1.436   1_545  S
H338        C976   1.083       .  S
C339        H340   1.083       .  S
H343        C973   1.082       .  S
O344        C359   1.262       .  A
O344       Al352   1.931       .  S
C345        O355   1.256       .  A
C345        O346   1.249       .  A
C345        C630   1.445       .  S
O346       Al348   1.900       .  S
O347        C349   1.262       .  A
O347       Al348   1.884       .  S
Al348       O356   1.876       .  S
Al348       O358   1.903       .  S
Al348       O357   1.783       .  S
C349        O362   1.260       .  A
C349        C633   1.413       .  S
O350        C360   1.256       .  A
O350       Al352   1.883       .  S
O351        C364   1.259       .  A
O351       Al361   1.910       .  S
Al352       O365   1.876       .  S
Al352       O362   1.901       .  S
Al352       O357   1.798       .  S
O353        C360   1.263       .  A
O353       Al361   1.918       .  S
O354        C363   1.271       .  A
O354       Al361   1.943       .  S
O355       Al361   1.922       .  S
O356        C363   1.263       .  A
O357       Al361   1.793       .  S
O358        C359   1.255       .  A
C359        C635   1.446       .  S
C360        C627   1.434       .  S
C363        C626   1.433       .  S
C364        O365   1.254       .  A
C364        C631   1.432       .  S
C366        C368   1.539       .  S
C366        C370   1.535       .  S
C366        C369   1.545       .  S
C366        C624   1.481       .  S
C367        C371   1.519       .  S
C367        C373   1.528       .  S
C367        C372   1.545       .  S
C367        C629   1.477       .  S
C368        C376   1.385       .  A
C368        C371   1.380       .  A
C369        C380   1.375       .  A
C369        C372   1.425       .  A
C370        C384   1.393       .  A
C370        C373   1.393       .  A
C371        C374   1.374       .  A
C372        C378   1.385       .  A
C373        C381   1.373       .  A
C374        N375   1.354       .  A
C374        H387   1.083       .  S
N375        C376   1.364       .  A
N375        C431   1.429       .  S
C376        H377   1.083       .  S
C378        N379   1.353       .  A
C378        H388   1.082       .  S
N379        C380   1.352       .  A
N379        C632   1.403       .  S
C380        H386   1.083       .  S
C381        N382   1.355       .  A
C381        H383   1.083       .  S
N382        C384   1.355       .  A
N382        C434   1.436       .  S
C384        H385   1.083       .  S
O389        C404   1.262       .  A
O389      Al1037   1.931       .  S
C390        O400   1.256       .  A
C390        O391   1.249       .  A
C390       C1277   1.445       .  S
O391       Al393   1.900       .  S
O392        C394   1.262       .  A
O392       Al393   1.884       .  S
Al393       O401   1.876       .  S
Al393       O403   1.903       .  S
Al393       O402   1.783       .  S
C394       O1047   1.260       .  A
C394        C621   1.413       .  S
O395        C405   1.256       .  A
O395       Al397   1.883   1_545  S
O396        C409   1.259       .  A
O396       Al406   1.910       .  S
Al397      O1029   1.931       .  S
Al397       O410   1.876       .  S
Al397       O407   1.901       .  S
Al397      O1042   1.798       .  S
O398        C405   1.263       .  A
O398      Al1046   1.918   1_545  S
O399        C408   1.271       .  A
O399       Al406   1.943       .  S
O400       Al406   1.922       .  S
O401        C408   1.263       .  A
O402      Al1037   1.798       .  S
O402       Al406   1.793       .  S
O403        C404   1.255       .  A
C404        C623   1.446       .  S
C405        C619   1.434       .  S
Al406      O1038   1.918       .  S
O407       C1034   1.260   1_565  A
C408        C618   1.433       .  S
C409       O1050   1.254       .  A
C409       C1280   1.432       .  S
O410       C1049   1.254       .  A
O411        C426   1.264       .  A
O411       Al419   1.887       .  S
C412        N977   1.436       .  S
C412        O422   1.250       .  A
C412        O413   1.273       .  A
O413       Al415   1.968       .  S
O414        C416   1.252       .  A
O414      Al1055   1.871   1_545  S
Al415      O1054   1.871       .  S
Al415       O423   1.900       .  S
Al415       O425   1.948       .  S
Al415       O424   1.772       .  S
C416        O429   1.262       .  A
C416        C625   1.432       .  S
O417       C1067   1.257       .  A
O417      Al1059   1.882   1_545  S
O418        C431   1.251       .  A
O418       Al428   1.871       .  S
Al419      O1057   1.882       .  S
Al419       O432   1.969       .  S
Al419      O1069   1.939       .  S
Al419       O424   1.791       .  S
O420        C427   1.266       .  A
O420       Al428   1.912       .  S
O421        C430   1.255       .  A
O421       Al428   1.898       .  S
O422       Al428   1.836       .  S
O423        C430   1.255       .  A
O424       Al428   1.771       .  S
O425        C426   1.274       .  A
C426        C616   1.437       .  S
C427       O1057   1.257       .  A
C427        C622   1.411       .  S
O429      Al1059   1.939   1_545  S
C430        C628   1.433       .  S
C431        O432   1.268       .  A
O433        C448   1.264       .  A
O433       Al441   1.887       .  S
C434        O444   1.250       .  A
C434        O435   1.273       .  A
O435       Al437   1.968       .  S
O436        C438   1.252       .  A
O436       Al437   1.871       .  S
Al437       O445   1.900       .  S
Al437       O447   1.947       .  S
Al437       O446   1.772       .  S
C438        O451   1.262       .  A
C438        C617   1.432       .  S
O439        C449   1.257       .  A
O439       Al441   1.882       .  S
O440        C453   1.251       .  A
O440       Al450   1.871       .  S
Al441       O454   1.969       .  S
Al441       O451   1.939       .  S
Al441       O446   1.791       .  S
O442        C449   1.266       .  A
O442       Al450   1.912       .  S
O443        C452   1.255       .  A
O443       Al450   1.897       .  S
O444       Al450   1.836       .  S
O445        C452   1.255       .  A
O446       Al450   1.771       .  S
O447        C448   1.274       .  A
C448        C613   1.436       .  S
C449        C634   1.411       .  S
C452        C620   1.433       .  S
C453        O454   1.268       .  A
C455        C457   1.540       .  S
C455        C459   1.535       .  S
C455        C458   1.545       .  S
C455        C607   1.481       .  S
C456        C460   1.519       .  S
C456        C462   1.528       .  S
C456        C461   1.545       .  S
C456        C609   1.477       .  S
C457        C465   1.385       .  A
C457        C460   1.380       .  A
C458        C469   1.375       .  A
C458        C461   1.425       .  A
C459        C473   1.393       .  A
C459        C462   1.394       .  A
C460        C463   1.374       .  A
C461        C467   1.385       .  A
C462       C1110   1.374       .  A
C463        N464   1.354       .  A
C463        H476   1.083       .  S
N464        C465   1.364       .  A
N464        C565   1.429       .  S
C465        H466   1.083       .  S
C467        N468   1.353       .  A
C467       H1117   1.082   1_545  S
N468        C469   1.352       .  A
N468        C612   1.403   1_545  S
C469        H475   1.083       .  S
C470       C1102   1.374       .  A
C470       N1111   1.355       .  A
C470        H472   1.083       .  S
N471       C1110   1.355       .  A
N471        C473   1.355       .  A
N471       C1208   1.436   1_545  S
C473        H474   1.083       .  S
H477       C1107   1.082       .  S
O478        C493   1.262       .  A
O478       Al486   1.931       .  S
C479        O489   1.256       .  A
C479        O480   1.249       .  A
C479        C602   1.445       .  S
O480       Al482   1.900       .  S
O481        C483   1.262       .  A
O481       Al482   1.884       .  S
Al482       O490   1.876       .  S
Al482       O492   1.902       .  S
Al482       O491   1.783       .  S
C483        O496   1.260       .  A
C483        C605   1.413       .  S
O484        C494   1.256       .  A
O484       Al486   1.883       .  S
O485        C498   1.259       .  A
O485       Al495   1.910       .  S
Al486       O499   1.876       .  S
Al486       O496   1.901       .  S
Al486       O491   1.798       .  S
O487        C494   1.263       .  A
O487       Al495   1.918       .  S
O488        C497   1.271       .  A
O488       Al495   1.942       .  S
O489       Al495   1.922       .  S
O490        C497   1.263       .  A
O491       Al495   1.793       .  S
O492        C493   1.255       .  A
C493        C608   1.446       .  S
C494        C600   1.434       .  S
C497        C597   1.432       .  S
C498        O499   1.254       .  A
C498        C603   1.432       .  S
C500        C502   1.539       .  S
C500        C504   1.535       .  S
C500        C503   1.545       .  S
C500        C596   1.481       .  S
C501        C505   1.519       .  S
C501        C507   1.528       .  S
C501        C506   1.545       .  S
C501        C601   1.477       .  S
C502        C510   1.385       .  A
C502        C505   1.380       .  A
C503        C514   1.375   1_556  A
C503        C506   1.425       .  A
C504        C518   1.393       .  A
C504        C507   1.394       .  A
C505        C508   1.374       .  A
C506        C512   1.385       .  A
C507        C515   1.373       .  A
C508        N509   1.354       .  A
C508        H521   1.083       .  S
N509        C510   1.364       .  A
N509        C587   1.429       .  S
C510        H511   1.083       .  S
C512        N513   1.353   1_556  A
C512        H522   1.082       .  S
N513        C514   1.352       .  A
C515        N516   1.355       .  A
C515        H517   1.083       .  S
N516        C518   1.355       .  A
N516        C546   1.436       .  S
C518        H519   1.083       .  S
O523        C538   1.262       .  A
O523       Al531   1.931       .  S
C524        O534   1.256       .  A
C524        O525   1.249       .  A
C524        C610   1.445       .  S
O525       Al527   1.900       .  S
O526        C528   1.262       .  A
O526       Al527   1.884       .  S
Al527       O535   1.876       .  S
Al527       O537   1.902       .  S
Al527       O536   1.783       .  S
C528       O1181   1.260       .  A
C528        C593   1.413       .  S
O529        C539   1.256       .  A
O529      Al1171   1.883   1_545  S
O530        C543   1.259       .  A
O530       Al540   1.910       .  S
Al531      O1169   1.883       .  S
Al531      O1184   1.876       .  S
Al531      O1181   1.901       .  S
Al531       O536   1.798       .  S
O532        C539   1.263       .  A
O532      Al1180   1.918   1_545  S
O533        C542   1.271       .  A
O533       Al540   1.942       .  S
O534       Al540   1.922       .  S
O535        C542   1.263       .  A
O536       Al540   1.793       .  S
O537        C538   1.255       .  A
C538        C595   1.446       .  S
C539        C591   1.434       .  S
Al540      O1172   1.918       .  S
O541       C1168   1.260   1_565  A
O541      Al1171   1.901       .  S
C542        C590   1.432       .  S
C543       O1184   1.254       .  A
C543       C1251   1.432       .  S
O544       C1183   1.254       .  A
O544      Al1171   1.876       .  S
O545        C560   1.264       .  A
O545       Al553   1.888       .  S
C546        O556   1.250       .  A
C546        O547   1.273       .  A
O547       Al549   1.968       .  S
O548        C550   1.252       .  A
O548       Al549   1.871       .  S
Al549       O557   1.900       .  S
Al549       O559   1.947       .  S
Al549       O558   1.772       .  S
C550        O563   1.262       .  A
C550        C589   1.432       .  S
O551        C561   1.257       .  A
O551       Al553   1.882       .  S
O552        C565   1.251       .  A
O552       Al562   1.871       .  S
Al553       O566   1.969       .  S
Al553       O563   1.939       .  S
Al553       O558   1.791       .  S
O554        C561   1.266       .  A
O554       Al562   1.912       .  S
O555        C564   1.255       .  A
O555       Al562   1.898       .  S
O556       Al562   1.837       .  S
O557        C564   1.255       .  A
O558       Al562   1.771       .  S
O559        C560   1.274       .  A
C560        C614   1.436       .  S
C561        C606   1.411       .  S
C564        C592   1.433       .  S
C565        O566   1.268       .  A
O567        C582   1.264       .  A
O567       Al575   1.888       .  S
C568       N1111   1.436       .  S
C568        O578   1.250       .  A
C568        O569   1.273       .  A
O569       Al571   1.968       .  S
O570        C572   1.252       .  A
O570      Al1211   1.871   1_545  S
Al571      O1210   1.871       .  S
Al571       O579   1.900       .  S
Al571       O581   1.947       .  S
Al571       O580   1.772       .  S
C572        O585   1.262       .  A
C572        C598   1.432       .  S
O573       C1223   1.257   1_545  A
O573      Al1215   1.882   1_545  S
O574        C587   1.251       .  A
O574       Al584   1.871       .  S
Al575      O1213   1.882       .  S
Al575       O588   1.969       .  S
Al575      O1225   1.939       .  S
Al575       O580   1.791       .  S
O576        C583   1.266       .  A
O576       Al584   1.912       .  S
O577        C586   1.255       .  A
O577       Al584   1.898       .  S
O578       Al584   1.837       .  S
O579        C586   1.255       .  A
O580       Al584   1.771       .  S
O581        C582   1.274       .  A
C582        C615   1.437       .  S
C583       O1213   1.257       .  A
C583        C594   1.411       .  S
O585      Al1215   1.939   1_545  S
C586        C599   1.433       .  S
C587        O588   1.268       .  A
C589        C590   1.204       .  T
C591        C592   1.205       .  T
C593        C594   1.191       .  T
C595        C596   1.214       .  T
C597        C598   1.204       .  T
C599        C600   1.205       .  T
C601        C602   1.212       .  T
C603        C604   1.206       .  T
C605        C606   1.191       .  T
C607        C608   1.214       .  T
C609       C1250   1.212       .  T
C610       C1249   1.212       .  T
C611       C1183   1.432       .  S
C613        C614   1.207   1_655  T
C615        C616   1.207       .  T
C617        C618   1.204       .  T
C619        C620   1.205       .  T
C621        C622   1.191       .  T
C623        C624   1.214       .  T
C625        C626   1.204       .  T
C627        C628   1.205       .  T
C629        C630   1.212       .  T
C633        C634   1.191       .  T
C635        C636   1.214       .  T
C637       C1030   1.445   1_545  S
C637        C638   1.212       .  T
C639        C640   1.206       .  T
C640       C1049   1.432       .  S
C641        C643   1.539       .  S
C641        C645   1.535       .  S
C641        C644   1.545       .  S
C641        C956   1.481       .  S
C642        C646   1.519       .  S
C642        C648   1.528       .  S
C642        C647   1.545       .  S
C642        C958   1.477       .  S
C643        C651   1.385       .  A
C643        C646   1.380       .  A
C644        C655   1.375       .  A
C644        C647   1.426       .  A
C645        C659   1.393       .  A
C645        C648   1.393       .  A
C646        C649   1.374       .  A
C647        C653   1.385       .  A
C648        C656   1.373       .  A
C649        N650   1.354       .  A
C649        H662   1.083       .  S
N650        C651   1.364       .  A
N650        C773   1.429       .  S
C651        H652   1.083       .  S
C653        N654   1.353       .  A
N654        C655   1.352       .  A
N654       C1279   1.403       .  S
C655        H981   1.083       .  S
C656        N657   1.355       .  A
N657        C659   1.355       .  A
C659        H660   1.083       .  S
H661        C975   1.083       .  S
O664        C679   1.262       .  A
O664       Al672   1.931       .  S
C665        O675   1.256       .  A
C665        O666   1.249       .  A
C665        C950   1.445       .  S
O666       Al668   1.900       .  S
O667        C669   1.262       .  A
O667       Al668   1.884       .  S
Al668       O676   1.876       .  S
Al668       O678   1.903       .  S
Al668       O677   1.783       .  S
C669        O682   1.260       .  A
C669        C953   1.413       .  S
O670        C680   1.256       .  A
O670       Al672   1.883       .  S
O671        C684   1.259       .  A
O671       Al681   1.910       .  S
Al672       O685   1.876       .  S
Al672       O682   1.901       .  S
Al672       O677   1.798       .  S
O673        C680   1.263       .  A
O673       Al681   1.918       .  S
O674        C683   1.271       .  A
O674       Al681   1.943       .  S
O675       Al681   1.922       .  S
O676        C683   1.263       .  A
O677       Al681   1.793       .  S
O678        C679   1.255       .  A
C679        C955   1.446       .  S
C680        C947   1.434       .  S
C683        C946   1.433       .  S
C684        O685   1.254       .  A
C684        C951   1.432       .  S
C686        C688   1.539       .  S
C686        C690   1.535       .  S
C686        C689   1.545       .  S
C686        C944   1.481       .  S
C687        C691   1.519       .  S
C687        C693   1.528       .  S
C687        C692   1.545       .  S
C687        C949   1.477       .  S
C688        C696   1.385       .  A
C688        C691   1.380       .  A
C689        C700   1.375       .  A
C689        C692   1.425       .  A
C690        C704   1.393       .  A
C690        C693   1.393       .  A
C691        C694   1.374       .  A
C692        C698   1.385       .  A
C693        C701   1.373       .  A
C694        N695   1.354       .  A
C694        H707   1.083       .  S
N695        C696   1.364       .  A
N695        C751   1.429       .  S
C696        H697   1.083       .  S
C698        N699   1.353       .  A
C698        H708   1.082       .  S
N699        C700   1.352       .  A
N699        C952   1.403       .  S
C700        H706   1.083       .  S
C701        N702   1.355       .  A
C701        H703   1.083       .  S
N702        C704   1.355       .  A
N702        C754   1.436       .  S
C704        H705   1.083       .  S
O709        C724   1.262       .  A
C710        O720   1.256   1_565  A
C710        O711   1.249       .  A
O711       Al713   1.900       .  S
O712        C714   1.262   1_565  A
O712       Al713   1.884       .  S
Al713       O721   1.876       .  S
Al713       O723   1.903       .  S
Al713       O722   1.783       .  S
C714        C941   1.413       .  S
O715        C725   1.256       .  A
O715       Al717   1.883       .  S
O716        C729   1.259       .  A
O716       Al726   1.910       .  S
Al717       O730   1.876       .  S
Al717       O727   1.901       .  S
O718        C725   1.263       .  A
O719        C728   1.271       .  A
O719       Al726   1.943       .  S
O720       Al726   1.922   1_545  S
O721        C728   1.263       .  A
O722       Al726   1.793       .  S
O723        C724   1.255       .  A
C724        C943   1.446       .  S
C725        C939   1.434       .  S
C728        C938   1.433       .  S
O731        C746   1.264       .  A
O731       Al739   1.887       .  S
C732        O742   1.250       .  A
C732        O733   1.273       .  A
O733       Al735   1.968       .  S
O734        C736   1.252       .  A
Al735       O743   1.900       .  S
Al735       O745   1.948       .  S
Al735       O744   1.772       .  S
C736        O749   1.262       .  A
C736        C945   1.432       .  S
O738        C751   1.251       .  A
O738       Al748   1.871       .  S
Al739       O752   1.969       .  S
Al739       O744   1.791       .  S
O740        C747   1.266   1_565  A
O740       Al748   1.912       .  S
O741        C750   1.255       .  A
O741       Al748   1.898       .  S
O742       Al748   1.836       .  S
O743        C750   1.255       .  A
O744       Al748   1.771       .  S
O745        C746   1.274       .  A
C746        C936   1.437       .  S
C747        C942   1.411       .  S
C750        C948   1.433       .  S
C751        O752   1.268       .  A
O753        C768   1.264       .  A
O753       Al761   1.887       .  S
C754        O764   1.250       .  A
C754        O755   1.273       .  A
O755       Al757   1.968       .  S
O756        C758   1.252       .  A
O756       Al757   1.871       .  S
Al757       O765   1.900       .  S
Al757       O767   1.947       .  S
Al757       O766   1.772       .  S
C758        O771   1.262       .  A
C758        C937   1.432       .  S
O759        C769   1.257       .  A
O759       Al761   1.882       .  S
O760        C773   1.251       .  A
O760       Al770   1.871       .  S
Al761       O774   1.969       .  S
Al761       O771   1.939       .  S
Al761       O766   1.791       .  S
O762        C769   1.266       .  A
O762       Al770   1.912       .  S
O763        C772   1.255       .  A
O763       Al770   1.897       .  S
O764       Al770   1.836       .  S
O765        C772   1.255       .  A
O766       Al770   1.771       .  S
O767        C768   1.274       .  A
C768        C933   1.436       .  S
C769        C954   1.411       .  S
C772        C940   1.433       .  S
C773        O774   1.268       .  A
C775        C777   1.540       .  S
C775        C779   1.535       .  S
C775        C778   1.545       .  S
C775        C927   1.481       .  S
C776        C780   1.519       .  S
C776        C782   1.528       .  S
C776        C781   1.545       .  S
C776        C929   1.477       .  S
C777        C785   1.385       .  A
C777        C780   1.380       .  A
C778        C789   1.375       .  A
C778        C781   1.425       .  A
C779        C793   1.393       .  A
C779        C782   1.394       .  A
C780        C783   1.374       .  A
C781        C787   1.385       .  A
C783        N784   1.354       .  A
C783        H796   1.083       .  S
N784        C785   1.364       .  A
N784        C885   1.429       .  S
C785        H786   1.083       .  S
C787        N788   1.353       .  A
N788        C789   1.352       .  A
N788        C932   1.403       .  S
C789        H795   1.083       .  S
C790        H792   1.083   1_545  S
N791        C793   1.355       .  A
C793        H794   1.083       .  S
O798        C813   1.262       .  A
O798       Al806   1.931       .  S
C799        O809   1.256       .  A
C799        O800   1.249       .  A
C799        C922   1.445       .  S
O800       Al802   1.900       .  S
O801        C803   1.262       .  A
O801       Al802   1.884       .  S
Al802       O810   1.876       .  S
Al802       O812   1.902       .  S
Al802       O811   1.783       .  S
C803        O816   1.260       .  A
C803        C925   1.413       .  S
O804        C814   1.256       .  A
O804       Al806   1.883       .  S
O805        C818   1.259       .  A
O805       Al815   1.910       .  S
Al806       O819   1.876       .  S
Al806       O816   1.901       .  S
Al806       O811   1.798       .  S
O807        C814   1.263       .  A
O807       Al815   1.918       .  S
O808        C817   1.271       .  A
O808       Al815   1.942       .  S
O809       Al815   1.922       .  S
O810        C817   1.263       .  A
O811       Al815   1.793       .  S
O812        C813   1.255       .  A
C813        C928   1.446       .  S
C814        C920   1.434       .  S
C817        C917   1.432       .  S
C818        O819   1.254       .  A
C818        C923   1.432       .  S
C820        C822   1.539       .  S
C820        C824   1.535       .  S
C820        C823   1.545       .  S
C820        C916   1.481       .  S
C821        C825   1.519       .  S
C821        C827   1.528       .  S
C821        C826   1.545       .  S
C821        C921   1.477       .  S
C822        C830   1.385       .  A
C822        C825   1.380       .  A
C823        C834   1.375       .  A
C823        C826   1.425       .  A
C824        C838   1.393       .  A
C824        C827   1.394       .  A
C825        C828   1.374       .  A
C826        C832   1.385       .  A
C827        C835   1.373       .  A
C828        N829   1.354       .  A
C828        H841   1.083       .  S
N829        C830   1.364       .  A
N829        C907   1.429       .  S
C830        H831   1.083       .  S
C832        N833   1.353       .  A
C832        H842   1.082       .  S
N833        C834   1.352       .  A
N833       C1244   1.403       .  S
C834       H1160   1.083       .  S
C835        N836   1.355       .  A
C835        H837   1.083       .  S
N836        C838   1.355       .  A
N836        C866   1.436       .  S
C838        H839   1.083       .  S
H840       C1154   1.083       .  S
O843        C858   1.262       .  A
O843       Al851   1.931       .  S
C844        O854   1.256   1_565  A
C844        O845   1.249       .  A
C844        C930   1.445   1_565  S
O845       Al847   1.900       .  S
O846        C848   1.262   1_565  A
O846       Al847   1.884       .  S
Al847       O855   1.876       .  S
Al847       O857   1.902       .  S
Al847       O856   1.783       .  S
C848        C913   1.413       .  S
O849        C859   1.256       .  A
O850        C863   1.259       .  A
O850       Al860   1.910       .  S
Al851       O856   1.798       .  S
O852        C859   1.263       .  A
O853        C862   1.271       .  A
O853       Al860   1.942       .  S
O854       Al860   1.922   1_545  S
O855        C862   1.263       .  A
O856       Al860   1.793       .  S
O857        C858   1.255       .  A
C858        C915   1.446       .  S
C859        C911   1.434       .  S
C862        C910   1.432       .  S
O865        C880   1.264       .  A
O865       Al873   1.888       .  S
C866        O876   1.250       .  A
C866        O867   1.273       .  A
O867       Al869   1.968       .  S
O868        C870   1.252       .  A
O868       Al869   1.871       .  S
Al869       O877   1.900       .  S
Al869       O879   1.947       .  S
Al869       O878   1.772       .  S
C870        O883   1.262       .  A
C870        C909   1.432       .  S
O871        C881   1.257       .  A
O871       Al873   1.882       .  S
O872        C885   1.251       .  A
O872       Al882   1.871       .  S
Al873       O886   1.969       .  S
Al873       O883   1.939       .  S
Al873       O878   1.791       .  S
O874        C881   1.266       .  A
O874       Al882   1.912       .  S
O875        C884   1.255       .  A
O875       Al882   1.898       .  S
O876       Al882   1.837       .  S
O877        C884   1.255       .  A
O878       Al882   1.771       .  S
O879        C880   1.274       .  A
C880        C934   1.436       .  S
C881        C926   1.411       .  S
C884        C912   1.433       .  S
C885        O886   1.268       .  A
O887        C902   1.264       .  A
O887       Al895   1.888       .  S
C888        O898   1.250       .  A
C888        O889   1.273       .  A
O889       Al891   1.968       .  S
O890        C892   1.252       .  A
Al891       O899   1.900       .  S
Al891       O901   1.947       .  S
Al891       O900   1.772       .  S
C892        O905   1.262       .  A
C892        C918   1.432       .  S
O894        C907   1.251       .  A
O894       Al904   1.871       .  S
Al895       O908   1.969       .  S
Al895       O900   1.791       .  S
O896        C903   1.266       .  A
O896       Al904   1.912       .  S
O897        C906   1.255       .  A
O897       Al904   1.898       .  S
O898       Al904   1.837       .  S
O899        C906   1.255       .  A
O900       Al904   1.771       .  S
O901        C902   1.274       .  A
C902        C935   1.437       .  S
C903        C914   1.411   1_565  S
C906        C919   1.433       .  S
C907        O908   1.268       .  A
C909        C910   1.204       .  T
C911        C912   1.205       .  T
C913        C914   1.191       .  T
C915        C916   1.214       .  T
C917        C918   1.204       .  T
C919        C920   1.205       .  T
C921        C922   1.212       .  T
C923        C924   1.206       .  T
C924       N1153   1.403       .  S
C925        C926   1.191       .  T
C927        C928   1.214       .  T
C931       C1252   1.206       .  T
C932       C1251   1.206   1_554  T
C933        C934   1.207   1_655  T
C935        C936   1.207       .  T
C937        C938   1.204       .  T
C939        C940   1.205       .  T
C941        C942   1.191       .  T
C943        C944   1.214       .  T
C945        C946   1.204       .  T
C947        C948   1.205       .  T
C949        C950   1.212       .  T
C951       C1272   1.206       .  T
C952       C1271   1.206   1_554  T
C953        C954   1.191       .  T
C955        C956   1.214       .  T
C957        C958   1.212       .  T
C959        N974   1.403       .  S
C959        C960   1.206       .  T
C961        C963   1.539       .  S
C961        C965   1.535       .  S
C961        C964   1.545       .  S
C961       C1276   1.481       .  S
C962        C966   1.519       .  S
C962        C968   1.528       .  S
C962        C967   1.545       .  S
C962       C1278   1.477       .  S
C963        C971   1.385       .  A
C963        C966   1.380       .  A
C964        C975   1.375   1_556  A
C964        C967   1.426       .  A
C965        C979   1.393       .  A
C965        C968   1.393       .  A
C966        C969   1.374       .  A
C967        C973   1.385       .  A
C968        C976   1.373       .  A
C969        N970   1.354       .  A
C969        H982   1.083       .  S
N970        C971   1.364       .  A
N970       C1093   1.429       .  S
C971        H972   1.083       .  S
C973        N974   1.353   1_556  A
N974        C975   1.352       .  A
C976        N977   1.355       .  A
N977        C979   1.355       .  A
C979        H980   1.083       .  S
O984        C999   1.262       .  A
O984       Al992   1.931       .  S
C985        O995   1.256       .  A
C985        O986   1.249       .  A
C985       C1270   1.445       .  S
O986       Al988   1.900       .  S
O987        C989   1.262       .  A
O987       Al988   1.884       .  S
Al988       O996   1.876       .  S
Al988       O998   1.903       .  S
Al988       O997   1.783       .  S
C989       O1002   1.260       .  A
C989       C1273   1.413       .  S
O990       C1000   1.256       .  A
O990       Al992   1.883       .  S
O991       C1004   1.259       .  A
O991      Al1001   1.910       .  S
Al992      O1005   1.876       .  S
Al992      O1002   1.901       .  S
Al992       O997   1.798       .  S
O993       C1000   1.263       .  A
O993      Al1001   1.918       .  S
O994       C1003   1.271       .  A
O994      Al1001   1.943       .  S
O995      Al1001   1.922       .  S
O996       C1003   1.263       .  A
O997      Al1001   1.793       .  S
O998        C999   1.255       .  A
C999       C1275   1.446       .  S
C1000      C1267   1.434       .  S
C1003      C1266   1.433       .  S
C1004      O1005   1.254       .  A
C1004      C1271   1.432       .  S
C1006      C1008   1.539       .  S
C1006      C1010   1.535       .  S
C1006      C1009   1.545       .  S
C1006      C1264   1.481       .  S
C1007      C1011   1.519       .  S
C1007      C1013   1.528       .  S
C1007      C1012   1.545       .  S
C1007      C1269   1.477       .  S
C1008      C1016   1.385       .  A
C1008      C1011   1.380       .  A
C1009      C1020   1.375       .  A
C1009      C1012   1.425       .  A
C1010      C1024   1.393       .  A
C1010      C1013   1.393       .  A
C1011      C1014   1.374       .  A
C1012      C1018   1.385       .  A
C1013      C1021   1.373       .  A
C1014      N1015   1.354       .  A
C1014      H1027   1.083       .  S
N1015      C1016   1.364       .  A
N1015      C1071   1.429       .  S
C1016      H1017   1.083       .  S
C1018      N1019   1.353       .  A
C1018      H1028   1.082       .  S
N1019      C1020   1.352       .  A
N1019      C1272   1.403       .  S
C1020      H1026   1.083       .  S
C1021      N1022   1.355       .  A
C1021      H1023   1.083       .  S
N1022      C1024   1.355       .  A
N1022      C1074   1.436       .  S
C1024      H1025   1.083       .  S
O1029      C1044   1.262       .  A
C1030      O1040   1.256   1_565  A
C1030      O1031   1.249       .  A
O1031     Al1033   1.900       .  S
O1032      C1034   1.262   1_565  A
O1032     Al1033   1.884       .  S
Al1033     O1041   1.876       .  S
Al1033     O1043   1.903       .  S
Al1033     O1042   1.783       .  S
C1034      C1261   1.413       .  S
O1035      C1045   1.256       .  A
O1035     Al1037   1.883       .  S
O1036      C1049   1.259       .  A
O1036     Al1046   1.910       .  S
Al1037     O1050   1.876       .  S
Al1037     O1047   1.901       .  S
O1038      C1045   1.263       .  A
O1039      C1048   1.271       .  A
O1039     Al1046   1.943       .  S
O1040     Al1046   1.922   1_545  S
O1041      C1048   1.263       .  A
O1042     Al1046   1.793       .  S
O1043      C1044   1.255       .  A
C1044      C1263   1.446       .  S
C1045      C1259   1.434       .  S
C1048      C1258   1.433       .  S
O1051      C1066   1.264       .  A
O1051     Al1059   1.887       .  S
C1052      O1062   1.250       .  A
C1052      O1053   1.273       .  A
O1053     Al1055   1.968       .  S
O1054      C1056   1.252       .  A
Al1055     O1063   1.900       .  S
Al1055     O1065   1.948       .  S
Al1055     O1064   1.772       .  S
C1056      O1069   1.262       .  A
C1056      C1265   1.432       .  S
O1058      C1071   1.251       .  A
O1058     Al1068   1.871       .  S
Al1059     O1072   1.969       .  S
Al1059     O1064   1.791       .  S
O1060      C1067   1.266   1_565  A
O1060     Al1068   1.912       .  S
O1061      C1070   1.255       .  A
O1061     Al1068   1.898       .  S
O1062     Al1068   1.836       .  S
O1063      C1070   1.255       .  A
O1064     Al1068   1.771       .  S
O1065      C1066   1.274       .  A
C1066      C1256   1.437       .  S
C1067      C1262   1.411       .  S
C1070      C1268   1.433       .  S
C1071      O1072   1.268       .  A
O1073      C1088   1.264       .  A
O1073     Al1081   1.887       .  S
C1074      O1084   1.250       .  A
C1074      O1075   1.273       .  A
O1075     Al1077   1.968       .  S
O1076      C1078   1.252       .  A
O1076     Al1077   1.871       .  S
Al1077     O1085   1.900       .  S
Al1077     O1087   1.947       .  S
Al1077     O1086   1.772       .  S
C1078      O1091   1.262       .  A
C1078      C1257   1.432       .  S
O1079      C1089   1.257       .  A
O1079     Al1081   1.882       .  S
O1080      C1093   1.251       .  A
O1080     Al1090   1.871       .  S
Al1081     O1094   1.969       .  S
Al1081     O1091   1.939       .  S
Al1081     O1086   1.791       .  S
O1082      C1089   1.266       .  A
O1082     Al1090   1.912       .  S
O1083      C1092   1.255       .  A
O1083     Al1090   1.897       .  S
O1084     Al1090   1.836       .  S
O1085      C1092   1.255       .  A
O1086     Al1090   1.771       .  S
O1087      C1088   1.274       .  A
C1088      C1253   1.436       .  S
C1089      C1274   1.411       .  S
C1092      C1260   1.433       .  S
C1093      O1094   1.268       .  A
C1095      C1097   1.540       .  S
C1095      C1099   1.535       .  S
C1095      C1098   1.545       .  S
C1095      C1247   1.481       .  S
C1096      C1100   1.519       .  S
C1096      C1102   1.528       .  S
C1096      C1101   1.545       .  S
C1096      C1249   1.477       .  S
C1097      C1105   1.385       .  A
C1097      C1100   1.380       .  A
C1098      C1109   1.375       .  A
C1098      C1101   1.425       .  A
C1099      C1113   1.393       .  A
C1099      C1102   1.394       .  A
C1100      C1103   1.374       .  A
C1101      C1107   1.385       .  A
C1103      N1104   1.354       .  A
C1103      H1116   1.083       .  S
N1104      C1105   1.364       .  A
N1104      C1205   1.429       .  S
C1105      H1106   1.083       .  S
C1107      N1108   1.353       .  A
N1108      C1109   1.352       .  A
N1108      C1252   1.403       .  S
C1109      H1115   1.083       .  S
C1110      H1112   1.083   1_545  S
N1111      C1113   1.355       .  A
C1113      H1114   1.083       .  S
O1118      C1133   1.262       .  A
O1118     Al1126   1.931       .  S
C1119      O1129   1.256       .  A
C1119      O1120   1.249       .  A
C1119      C1242   1.445       .  S
O1120     Al1122   1.900       .  S
O1121      C1123   1.262       .  A
O1121     Al1122   1.884       .  S
Al1122     O1130   1.876       .  S
Al1122     O1132   1.902       .  S
Al1122     O1131   1.783       .  S
C1123      O1136   1.260       .  A
C1123      C1245   1.413       .  S
O1124      C1134   1.256       .  A
O1124     Al1126   1.883       .  S
O1125      C1138   1.259       .  A
O1125     Al1135   1.910       .  S
Al1126     O1139   1.876       .  S
Al1126     O1136   1.901       .  S
Al1126     O1131   1.798       .  S
O1127      C1134   1.263       .  A
O1127     Al1135   1.918       .  S
O1128      C1137   1.271       .  A
O1128     Al1135   1.942       .  S
O1129     Al1135   1.922       .  S
O1130      C1137   1.263       .  A
O1131     Al1135   1.793       .  S
O1132      C1133   1.255       .  A
C1133      C1248   1.446       .  S
C1134      C1240   1.434       .  S
C1137      C1237   1.432       .  S
C1138      O1139   1.254       .  A
C1138      C1243   1.432       .  S
C1140      C1142   1.539       .  S
C1140      C1144   1.535       .  S
C1140      C1143   1.545       .  S
C1140      C1236   1.481       .  S
C1141      C1145   1.519       .  S
C1141      C1147   1.528       .  S
C1141      C1146   1.545       .  S
C1141      C1241   1.477       .  S
C1142      C1150   1.385       .  A
C1142      C1145   1.380       .  A
C1143      C1154   1.375   1_556  A
C1143      C1146   1.425       .  A
C1144      C1158   1.393       .  A
C1144      C1147   1.394       .  A
C1145      C1148   1.374       .  A
C1146      C1152   1.385       .  A
C1147      C1155   1.373       .  A
C1148      N1149   1.354       .  A
C1148      H1161   1.083       .  S
N1149      C1150   1.364       .  A
N1149      C1227   1.429       .  S
C1150      H1151   1.083       .  S
C1152      N1153   1.353   1_556  A
C1152      H1162   1.082       .  S
N1153      C1154   1.352       .  A
C1155      N1156   1.355       .  A
C1155      H1157   1.083       .  S
N1156      C1158   1.355       .  A
N1156      C1186   1.436       .  S
C1158      H1159   1.083       .  S
O1163      C1178   1.262       .  A
O1163     Al1171   1.931       .  S
C1164      O1174   1.256   1_565  A
C1164      O1165   1.249       .  A
C1164      C1250   1.445   1_565  S
O1165     Al1167   1.900       .  S
O1166      C1168   1.262   1_565  A
O1166     Al1167   1.884       .  S
Al1167     O1175   1.876       .  S
Al1167     O1177   1.902       .  S
Al1167     O1176   1.783       .  S
C1168      C1233   1.413       .  S
O1169      C1179   1.256       .  A
O1170      C1183   1.259       .  A
O1170     Al1180   1.910       .  S
Al1171     O1176   1.798       .  S
O1172      C1179   1.263       .  A
O1173      C1182   1.271       .  A
O1173     Al1180   1.942       .  S
O1174     Al1180   1.922   1_545  S
O1175      C1182   1.263       .  A
O1176     Al1180   1.793       .  S
O1177      C1178   1.255       .  A
C1178      C1235   1.446       .  S
C1179      C1231   1.434       .  S
C1182      C1230   1.432       .  S
O1185      C1200   1.264       .  A
O1185     Al1193   1.888       .  S
C1186      O1196   1.250       .  A
C1186      O1187   1.273       .  A
O1187     Al1189   1.968       .  S
O1188      C1190   1.252       .  A
O1188     Al1189   1.871       .  S
Al1189     O1197   1.900       .  S
Al1189     O1199   1.947       .  S
Al1189     O1198   1.772       .  S
C1190      O1203   1.262       .  A
C1190      C1229   1.432       .  S
O1191      C1201   1.257       .  A
O1191     Al1193   1.882       .  S
O1192      C1205   1.251       .  A
O1192     Al1202   1.871       .  S
Al1193     O1206   1.969       .  S
Al1193     O1203   1.939       .  S
Al1193     O1198   1.791       .  S
O1194      C1201   1.266       .  A
O1194     Al1202   1.912       .  S
O1195      C1204   1.255       .  A
O1195     Al1202   1.898       .  S
O1196     Al1202   1.837       .  S
O1197      C1204   1.255       .  A
O1198     Al1202   1.771       .  S
O1199      C1200   1.274       .  A
C1200      C1254   1.436       .  S
C1201      C1246   1.411       .  S
C1204      C1232   1.433       .  S
C1205      O1206   1.268       .  A
O1207      C1222   1.264       .  A
O1207     Al1215   1.888       .  S
C1208      O1218   1.250       .  A
C1208      O1209   1.273       .  A
O1209     Al1211   1.968       .  S
O1210      C1212   1.252       .  A
Al1211     O1219   1.900       .  S
Al1211     O1221   1.947       .  S
Al1211     O1220   1.772       .  S
C1212      O1225   1.262       .  A
C1212      C1238   1.432       .  S
O1214      C1227   1.251       .  A
O1214     Al1224   1.871       .  S
Al1215     O1228   1.969       .  S
Al1215     O1220   1.791       .  S
O1216      C1223   1.266       .  A
O1216     Al1224   1.912       .  S
O1217      C1226   1.255       .  A
O1217     Al1224   1.898       .  S
O1218     Al1224   1.837       .  S
O1219      C1226   1.255       .  A
O1220     Al1224   1.771       .  S
O1221      C1222   1.274       .  A
C1222      C1255   1.437       .  S
C1223      C1234   1.411   1_565  S
C1226      C1239   1.433       .  S
C1227      O1228   1.268       .  A
C1229      C1230   1.204       .  T
C1231      C1232   1.205       .  T
C1233      C1234   1.191       .  T
C1235      C1236   1.214       .  T
C1237      C1238   1.204       .  T
C1239      C1240   1.205       .  T
C1241      C1242   1.212       .  T
C1243      C1244   1.206       .  T
C1245      C1246   1.191       .  T
C1247      C1248   1.214       .  T
C1253      C1254   1.207   1_655  T
C1255      C1256   1.207       .  T
C1257      C1258   1.204       .  T
C1259      C1260   1.205       .  T
C1261      C1262   1.191       .  T
C1263      C1264   1.214       .  T
C1265      C1266   1.204       .  T
C1267      C1268   1.205       .  T
C1269      C1270   1.212       .  T
C1273      C1274   1.191       .  T
C1275      C1276   1.214       .  T
C1277      C1278   1.212       .  T
C1279      C1280   1.206       .  T
