geometry optimzed in LAMMPS
_audit_creation_date              2020-12-01 
_audit_creation_method            'lammps2cif' 
_symmetry_space_group_name_H-M    'P1' 
_symmetry_Int_Tables_number       1 
_symmetry_cell_setting            triclinic 
loop_ 
_symmetry_equiv_pos_as_xyz 
  x,y,z 
_cell_length_a                    36.25333528 
_cell_length_b                    36.251695780397334 
_cell_length_c                    36.252036352467755 
_cell_angle_alpha                 89.99941873619211 
_cell_angle_beta                  90.00193165228279 
_cell_angle_gamma                 90.00026825814483 
loop_ 
_atom_site_label 
_atom_site_type_symbol 
_atom_site_fract_x 
_atom_site_fract_y 
_atom_site_fract_z 
_atom_site_charge 
C1          C  0.39377621  0.34126256  0.35964250     0.82100
N2          N  0.38832993  0.37017427  0.33643086    -0.76200
C3          C  0.35964829  0.39378634  0.34124242     0.84600
N4          N  0.33643521  0.38833706  0.37015029    -0.76100
C5          C  0.34124960  0.35965650  0.39376501     0.84700
N6          N  0.37016221  0.33644712  0.38832196    -0.77800
C7          C  0.17326862  0.35965795  0.12073574     0.82100
N8          N  0.17808512  0.38834261  0.14434505    -0.76200
C9          C  0.15487238  0.39379873  0.17325197     0.84600
N10         N  0.12618862  0.37018969  0.17806750    -0.76100
C11         C  0.12073978  0.34127447  0.15486132     0.84700
N12         N  0.14435393  0.33645181  0.12618333    -0.77800
C13         C  0.39378565  0.15488325  0.34125035     0.82100
N14         N  0.38833719  0.17809452  0.37016127    -0.76200
C15         C  0.35965689  0.17327822  0.39377366     0.84600
N16         N  0.33644823  0.14436521  0.38832601    -0.76100
C17         C  0.34126467  0.12075104  0.35964621     0.84700
N18         N  0.37017516  0.12619949  0.33643614    -0.77800
C19         C  0.12073845  0.17328197  0.35964432     0.82100
N20         N  0.14434853  0.17809434  0.38832885    -0.76200
C21         C  0.17325704  0.15488131  0.39377932     0.84600
N22         N  0.17807295  0.12620098  0.37016548    -0.76100
C23         C  0.15486587  0.12075643  0.34125018     0.84700
N24         N  0.12618672  0.14437121  0.33643272    -0.77800
C25         C  0.15486972  0.34126227  0.39377699     0.82100
N26         N  0.17807689  0.37017672  0.38832944    -0.76200
C27         C  0.17325705  0.39379150  0.35964932     0.84600
N28         N  0.14434365  0.38834359  0.33644131    -0.76100
C29         C  0.12073328  0.35966064  0.34125734     0.84700
N30         N  0.12618656  0.33644713  0.37016624    -0.77800
C31         C  0.34126545  0.15487556  0.12073686     0.82100
N32         N  0.33644663  0.12619645  0.14435269    -0.76200
C33         C  0.35965369  0.12075085  0.17326813     0.84600
N34         N  0.38833626  0.14436216  0.17808265    -0.76100
C35         C  0.39378831  0.17327027  0.15486808     0.84700
N36         N  0.37017763  0.17808466  0.12618457    -0.77800
O37         O  0.29680302  0.29250912  0.09397231    -0.69900
O38         O  0.21773838  0.22202100  0.09398142    -0.70100
O39         O  0.29251357  0.21773035  0.09397701    -0.69900
O40         O  0.22202851  0.29679772  0.09397835    -0.70000
O41         O  0.21087155  0.28128906  0.03758001    -0.69900
O42         O  0.30365949  0.23323506  0.03757625    -0.69900
O43         O  0.23323876  0.21086552  0.03758191    -0.69900
O44         O  0.28129122  0.30365769  0.03757302    -0.70100
V45         V  0.25727123  0.25726426  0.09433702     1.35200
V46         V  0.25726541  0.25726168  0.03819772     1.35200
C47         C  0.30255370  0.31009498  0.06409136     0.79400
C48         C  0.21197729  0.20443645  0.06410176     0.79400
C49         C  0.31009588  0.21197400  0.06409624     0.79300
C50         C  0.20444020  0.30255189  0.06409950     0.79300
N51         N  0.17698860  0.18729072  0.05698151    -0.01600
C52         C  0.14941855  0.18437614  0.08200998     0.01000
C53         C  0.11644156  0.17751749  0.06424191    -0.21900
C54         C  0.12424526  0.17533776  0.02726831    -0.22100
C55         C  0.16188407  0.18058525  0.02312819     0.00900
H56         H  0.09045213  0.17017488  0.07698537     0.14700
H57         H  0.10533747  0.16579425  0.00621707     0.14700
N58         N  0.18728137  0.33753492  0.05697895    -0.01600
C59         C  0.18435536  0.36510793  0.08200505     0.01000
C60         C  0.17748597  0.39808175  0.06423297    -0.21900
C61         C  0.17531082  0.39027300  0.02725998    -0.22100
C62         C  0.18057208  0.35263421  0.02312404     0.00900
H63         H  0.17013377  0.42407109  0.07697329     0.14700
H64         H  0.16576169  0.40917550  0.00620629     0.14700
N65         N  0.32725407  0.17699074  0.05697667    -0.01600
C66         C  0.33018364  0.14941966  0.08200510     0.01000
C67         C  0.33706088  0.11644635  0.06423672    -0.21900
C68         C  0.33923687  0.12425349  0.02726330    -0.22100
C69         C  0.33396833  0.16189118  0.02312327     0.00900
H70         H  0.34441740  0.09045856  0.07698066     0.18900
H71         H  0.34879046  0.10535138  0.00621209     0.14700
N72         N  0.33753141  0.32726160  0.05696972    -0.01600
C73         C  0.36510227  0.33019845  0.08199667     0.01000
C74         C  0.39807146  0.33708453  0.06422680    -0.21900
C75         C  0.39026202  0.33925876  0.02725372    -0.22100
C76         C  0.35262701  0.33398085  0.02311579     0.00900
H77         H  0.42405680  0.34444677  0.07696910     0.14700
H78         H  0.40915955  0.34881684  0.00620163     0.14700
O79         O  0.21087367  0.23323599  0.47693681    -0.69900
O80         O  0.30366018  0.28129272  0.47692784    -0.70100
O81         O  0.23323867  0.30365868  0.47693214    -0.69900
O82         O  0.28129412  0.21086808  0.47693228    -0.70000
O83         O  0.29679397  0.22201828  0.42053141    -0.69900
O84         O  0.21772870  0.29250510  0.42053343    -0.69900
O85         O  0.29250269  0.29679553  0.42052790    -0.69900
O86         O  0.22201845  0.21772787  0.42053690    -0.70100
V87         V  0.25726685  0.25726369  0.47631228     1.35200
V88         V  0.25726101  0.25726146  0.42017282     1.35200
C89         C  0.20443542  0.21197469  0.45041794     0.79400
C90         C  0.31008920  0.30255456  0.45040688     0.79400
C91         C  0.21197497  0.31009109  0.45041322     0.79300
C92         C  0.30255392  0.20443495  0.45041230     0.79300
N93         N  0.18727138  0.17699462  0.45753888    -0.01600
C94         C  0.18433615  0.14942397  0.43251161     0.01000
C95         C  0.17745249  0.11645204  0.45028109    -0.21900
C96         C  0.17527817  0.12426035  0.48725428    -0.22100
C97         C  0.18055402  0.16189707  0.49139265     0.00900
H98         H  0.17009124  0.09046611  0.43753847     0.14700
H99         H  0.16572055  0.10536057  0.00830639     0.14700
N100        N  0.17699217  0.32724719  0.45753439    -0.01600
C101        C  0.14942018  0.33017321  0.43250744     0.01000
C102        C  0.11644720  0.33703826  0.45027827    -0.21900
C103        C  0.12425541  0.33921039  0.48725177    -0.22100
C104        C  0.16189317  0.33395234  0.49138912     0.00900
H105        H  0.09045822  0.34438955  0.43753705     0.14700
H106        H  0.10535276  0.34875673  0.00830549     0.14700
N107        N  0.33753962  0.18728306  0.45753269    -0.01600
C108        C  0.36510988  0.18436322  0.43250482     0.01000
C109        C  0.39808484  0.17749786  0.45027405    -0.21900
C110        C  0.39027980  0.17531928  0.48724737    -0.22100
C111        C  0.35264207  0.18057421  0.49138662     0.00900
H112        H  0.42407332  0.17015035  0.43753125     0.14700
H113        H  0.40918537  0.16577275  0.00829878     0.14700
N114        N  0.32723971  0.33754212  0.45752457    -0.01600
C115        C  0.33015915  0.36511155  0.43249371     0.01000
C116        C  0.33701441  0.39809107  0.45025973    -0.21900
C117        C  0.33918674  0.39028950  0.48723471    -0.22100
C118        C  0.33393862  0.35264921  0.49137794     0.00900
H119        H  0.34435889  0.42408081  0.43751515     0.14700
H120        H  0.34872733  0.40919958  0.00828604     0.14700
O121        O  0.29250168  0.09399282  0.29679805    -0.69900
O122        O  0.22201796  0.09400117  0.21772898    -0.70100
O123        O  0.21772630  0.09399776  0.29250548    -0.69900
O124        O  0.29679182  0.09399619  0.22202198    -0.70000
O125        O  0.28128398  0.03759686  0.21086802    -0.69900
O126        O  0.23322713  0.03759599  0.30365558    -0.69900
O127        O  0.21086240  0.03760048  0.23323062    -0.69900
O128        O  0.30364813  0.03759205  0.28129134    -0.70100
V129        V  0.25725929  0.09435647  0.25726384     1.35200
V130        V  0.25725528  0.03821638  0.25726157     1.35200
C131        C  0.31008539  0.06411155  0.30255238     0.79400
C132        C  0.20443291  0.06412179  0.21196880     0.79400
C133        C  0.21196709  0.06411664  0.31008852     0.79300
C134        C  0.30254702  0.06411607  0.20443663     0.79300
N135        N  0.18728413  0.05700414  0.17698031    -0.01600
C136        C  0.18436579  0.08203585  0.14941143     0.01000
C137        C  0.17751398  0.06427026  0.11643118    -0.21900
C138        C  0.17534268  0.02729470  0.12423172    -0.22100
C139        C  0.18058792  0.02315065  0.16187222     0.00900
H140        H  0.17017076  0.07701564  0.09044078     0.14700
H141        H  0.16580455  0.00624383  0.10532070     0.14700
N142        N  0.33753080  0.05699438  0.18728376    -0.01600
C143        C  0.36510296  0.08202095  0.18436108     0.01000
C144        C  0.39807678  0.06424887  0.17750178    -0.21900
C145        C  0.39026908  0.02727502  0.17532967    -0.22100
C146        C  0.35263063  0.02313875  0.18058215     0.00900
H147        H  0.42406686  0.07698946  0.17015355     0.14700
H148        H  0.40917233  0.00622125  0.16578694     0.14700
N149        N  0.17698217  0.05699702  0.32724063    -0.01600
C150        C  0.14941234  0.08202615  0.33016174     0.01000
C151        C  0.11643703  0.06425771  0.33702449    -0.21900
C152        C  0.12424152  0.02728347  0.33919999    -0.22100
C153        C  0.16187924  0.02314290  0.33394619     0.00900
H154        H  0.09044911  0.07700103  0.34437225     0.14700
H155        H  0.10533564  0.00623138  0.34874533     0.14700
N156        N  0.32724829  0.05699103  0.33753330    -0.01600
C157        C  0.33018199  0.08201955  0.36510292     0.01000
C158        C  0.33705851  0.06425069  0.39807677    -0.21900
C159        C  0.33922978  0.02727632  0.39027080    -0.22100
C160        C  0.33395951  0.02313671  0.35263354     0.00900
H161        H  0.34441673  0.07699338  0.42406261     0.14700
H162        H  0.34878212  0.00622439  0.40917305     0.14700
O163        O  0.23323096  0.47695421  0.21086711    -0.69900
O164        O  0.28128222  0.47694642  0.30366025    -0.70100
O165        O  0.30365013  0.47694766  0.23323827    -0.69900
O166        O  0.21086169  0.47695133  0.28128851    -0.70000
O167        O  0.22200979  0.42055036  0.29679435    -0.69900
O168        O  0.29249421  0.42054919  0.21772859    -0.69900
O169        O  0.29678515  0.42054657  0.29250533    -0.69900
O170        O  0.21771953  0.42055494  0.22201593    -0.70100
V171        V  0.25725604  0.47633002  0.25726368     1.35200
V172        V  0.25725190  0.42019033  0.25726133     1.35200
C173        C  0.21196859  0.45043613  0.20442965     0.79400
C174        C  0.30254440  0.45042651  0.31009048     0.79400
C175        C  0.31008192  0.45042834  0.21197533     0.79300
C176        C  0.20442634  0.45043129  0.30254980     0.79300
N177        N  0.17699085  0.45755888  0.18726221    -0.01600
C178        C  0.14941922  0.43253322  0.18432500     0.01000
C179        C  0.11645118  0.45030485  0.17743370    -0.21900
C180        C  0.12426226  0.48727747  0.17525649    -0.22100
C181        C  0.16189686  0.49141344  0.18053799     0.00900
H182        H  0.09046619  0.43756356  0.17006986     0.14700
H183        H  0.10536629  0.00833040  0.16569492     0.14700
N184        N  0.32724080  0.45754947  0.17699316    -0.01600
C185        C  0.33016716  0.43252438  0.14941933     0.01000
C186        C  0.33704055  0.45029771  0.11644746    -0.21900
C187        C  0.33921793  0.48727044  0.12425843    -0.22100
C188        C  0.33395391  0.49140483  0.16189650     0.00900
H189        H  0.34439417  0.43755800  0.09045879     0.14700
H190        H  0.34877027  0.00832531  0.10535798     0.14700
N191        N  0.18726792  0.45755154  0.33753218    -0.01600
C192        C  0.18433875  0.43252359  0.36510373     0.01000
C193        C  0.17746124  0.45029316  0.39807612    -0.21900
C194        C  0.17528466  0.48726676  0.39026801    -0.22100
C195        C  0.18055300  0.49140560  0.35263074     0.00900
H196        H  0.17010498  0.43755022  0.42406324     0.14700
H197        H  0.16573054  0.00831854  0.40916888     0.14700
N198        N  0.33753142  0.45754668  0.32724038    -0.01600
C199        C  0.36510187  0.43251809  0.33015978     0.01000
C200        C  0.39807703  0.45028605  0.33702667    -0.21900
C201        C  0.39027180  0.48725986  0.33920674    -0.22100
C202        C  0.35263381  0.49140000  0.33395109     0.00900
H203        H  0.42406517  0.43754234  0.34437397     0.14700
H204        H  0.40917649  0.00831045  0.34875509     0.14700
C205        C  0.39378074  0.35966489  0.17325454     0.82100
N206        N  0.38833160  0.33645786  0.14434024    -0.76200
C207        C  0.35964855  0.34127443  0.12072984     0.84600
N208        N  0.33643664  0.37018338  0.12618379    -0.76100
C209        C  0.34125268  0.39379260  0.15486867     0.84700
N210        N  0.37016667  0.38834378  0.17807606    -0.77800
O211        O  0.09397590  0.29681333  0.29249702    -0.69900
O212        O  0.09398519  0.21774878  0.22200732    -0.70100
O213        O  0.09398089  0.29252672  0.21771901    -0.69900
O214        O  0.09398084  0.22203590  0.29678372    -0.70000
O215        O  0.03758371  0.21088166  0.28127449    -0.69900
O216        O  0.03758183  0.30367406  0.23322013    -0.69900
O217        O  0.03758675  0.23325026  0.21085110    -0.69900
O218        O  0.03757819  0.28130357  0.30364220    -0.70100
V219        V  0.09434026  0.25728139  0.25725163     1.35200
V220        V  0.03820271  0.25727753  0.25724668     1.35200
C221        C  0.06409595  0.30256541  0.31008097     0.79400
C222        C  0.06410685  0.21198904  0.20442123     0.79400
C223        C  0.06410100  0.31010995  0.21196041     0.79300
C224        C  0.06410236  0.20444925  0.30253816     0.79300
N225        N  0.05698867  0.17700112  0.18727122    -0.01600
C226        C  0.08201809  0.14943130  0.18435085     0.01000
C227        C  0.06425174  0.11645275  0.17749251    -0.21900
C228        C  0.02727821  0.12425510  0.17531956    -0.22100
C229        C  0.02313631  0.16189504  0.18057045     0.00900
H230        H  0.07699531  0.09046315  0.17014675     0.14700
H231        H  0.00622780  0.10534676  0.16577815     0.14700
N232        N  0.05698136  0.32726646  0.17697568    -0.01600
C233        C  0.08200926  0.33019245  0.14940584     0.01000
C234        C  0.06424179  0.33706237  0.11643016    -0.21900
C235        C  0.02726915  0.33923684  0.12423420    -0.22100
C236        C  0.02312877  0.33397512  0.16187245     0.00900
H237        H  0.07698491  0.34441427  0.09044227     0.14700
H238        H  0.00621870  0.34878526  0.10532906     0.14700
N239        N  0.05698231  0.18729317  0.33752247    -0.01600
C240        C  0.08200905  0.18436893  0.36509511     0.01000
C241        C  0.06423960  0.17750380  0.39806977    -0.21900
C242        C  0.02726733  0.17532960  0.39026195    -0.22100
C243        C  0.02312929  0.18058691  0.35262284     0.00900
H244        H  0.07698115  0.17015385  0.42406003     0.14700
H245        H  0.00621521  0.16578331  0.40916587     0.14700
N246        N  0.05697497  0.33754505  0.32724619    -0.01600
C247        C  0.08200144  0.36511630  0.33018049     0.01000
C248        C  0.06423284  0.39808801  0.33706418    -0.21900
C249        C  0.02726123  0.39027954  0.33923933    -0.22100
C250        C  0.02312259  0.35264285  0.33396425     0.00900
H251        H  0.07697542  0.42407453  0.34442453     0.14700
H252        H  0.00620985  0.40917991  0.34879649     0.14700
O253        O  0.47694447  0.21088383  0.23322615    -0.69900
O254        O  0.47693488  0.30367601  0.28127896    -0.70100
O255        O  0.47693860  0.23325231  0.30364789    -0.69900
O256        O  0.47694045  0.28130630  0.21085610    -0.70000
O257        O  0.42054134  0.29680885  0.22200183    -0.69900
O258        O  0.42054163  0.21774366  0.29249258    -0.69900
O259        O  0.42053689  0.29252070  0.29677935    -0.69900
O260        O  0.42054630  0.22203028  0.21771584    -0.70100
V261        V  0.47631954  0.25727982  0.25725223     1.35200
V262        V  0.42018201  0.25727603  0.25724712     1.35200
C263        C  0.45042644  0.20444582  0.21196391     0.79400
C264        C  0.45041514  0.31010627  0.30253968     0.79400
C265        C  0.45042016  0.21198922  0.31008012     0.79300
C266        C  0.45042112  0.30256659  0.20441923     0.79300
N267        N  0.45754686  0.18728175  0.17698395    -0.01600
C268        C  0.43251955  0.18434835  0.14941294     0.01000
C269        C  0.45028734  0.17746764  0.11644091    -0.21900
C270        C  0.48725942  0.17529325  0.12424877    -0.22100
C271        C  0.49139908  0.18056591  0.16188549     0.00900
H272        H  0.43754425  0.17010877  0.09045405     0.14700
H273        H  0.00831012  0.16573824  0.10534814     0.14700
N274        N  0.45754003  0.33755082  0.18726148    -0.01600
C275        C  0.43251161  0.36512105  0.18433485     0.01000
C276        C  0.45027782  0.39809633  0.17746085    -0.21900
C277        C  0.48725034  0.39029144  0.17528432    -0.22100
C278        C  0.49139173  0.35265330  0.18054895     0.00900
H279        H  0.43753390  0.42408332  0.17010758     0.14700
H280        H  0.00829963  0.40919595  0.16573309     0.14700
N281        N  0.45754088  0.17700524  0.32723762    -0.01600
C282        C  0.43251521  0.14943239  0.33016424     0.01000
C283        C  0.45028622  0.11645814  0.33703202    -0.21900
C284        C  0.48725845  0.12426663  0.33920513    -0.22100
C285        C  0.49139474  0.16190573  0.33394460     0.00900
H286        H  0.43754619  0.09046859  0.34438395     0.14700
H287        H  0.00831160  0.10536344  0.34875218     0.14700
N288        N  0.45753380  0.32725570  0.33752772    -0.01600
C289        C  0.43250509  0.33017460  0.36509742     0.01000
C290        C  0.45027207  0.33703174  0.39807590    -0.21900
C291        C  0.48724526  0.33920550  0.39027378    -0.22100
C292        C  0.49138641  0.33395623  0.35263393     0.00900
H293        H  0.43752879  0.34437640  0.42406582     0.14700
H294        H  0.00829578  0.34874575  0.40918246     0.14700
C295        C  0.15487228  0.17328954  0.12074054     0.82100
N296        N  0.12619127  0.17810012  0.14435272    -0.76200
C297        C  0.12074638  0.15488668  0.17326294     0.84600
N298        N  0.14436119  0.12620654  0.17807661    -0.76100
C299        C  0.17327308  0.12076446  0.15486706     0.84700
N300        N  0.17808605  0.14438079  0.12618794    -0.77800
C301        C  0.39377594  0.34126264  0.85964253     0.82100
N302        N  0.38832975  0.37017446  0.83643094    -0.76200
C303        C  0.35964820  0.39378663  0.84124259     0.84600
N304        N  0.33643509  0.38833737  0.87015043    -0.76100
C305        C  0.34124943  0.35965676  0.89376513     0.84700
N306        N  0.37016193  0.33644729  0.88832199    -0.77800
C307        C  0.17326864  0.35965803  0.62073569     0.82100
N308        N  0.17808516  0.38834275  0.64434496    -0.76200
C309        C  0.15487248  0.39379894  0.67325186     0.84600
N310        N  0.12618868  0.37018991  0.67806749    -0.76100
C311        C  0.12073983  0.34127463  0.65486136     0.84700
N312        N  0.14435392  0.33645194  0.62618336    -0.77800
C313        C  0.39378535  0.15488337  0.84125025     0.82100
N314        N  0.38833704  0.17809468  0.87016116    -0.76200
C315        C  0.35965678  0.17327842  0.89377370     0.84600
N316        N  0.33644814  0.14436542  0.88832619    -0.76100
C317        C  0.34126445  0.12075119  0.85964639     0.84700
N318        N  0.37017485  0.12619963  0.83643618    -0.77800
C319        C  0.12073824  0.17328182  0.85964450     0.82100
N320        N  0.14434826  0.17809431  0.88832897    -0.76200
C321        C  0.17325699  0.15488151  0.89377943     0.84600
N322        N  0.17807303  0.12620120  0.87016552    -0.76100
C323        C  0.15486603  0.12075653  0.84125025     0.84700
N324        N  0.12618666  0.14437112  0.83643282    -0.77800
C325        C  0.15486967  0.34126255  0.89377707     0.82100
N326        N  0.17807675  0.37017704  0.88832944    -0.76200
C327        C  0.17325695  0.39379167  0.85964921     0.84600
N328        N  0.14434356  0.38834366  0.83644121    -0.76100
C329        C  0.12073319  0.35966070  0.84125739     0.84700
N330        N  0.12618650  0.33644730  0.87016630    -0.77800
C331        C  0.34126525  0.15487567  0.62073674     0.82100
N332        N  0.33644655  0.12619659  0.64435265    -0.76200
C333        C  0.35965369  0.12075105  0.67326799     0.84600
N334        N  0.38833627  0.14436239  0.67808241    -0.76100
C335        C  0.39378814  0.17327052  0.65486783     0.84700
N336        N  0.37017741  0.17808483  0.62618438    -0.77800
O337        O  0.29680293  0.29250912  0.59397226    -0.69900
O338        O  0.21773834  0.22202087  0.59398140    -0.70100
O339        O  0.29251347  0.21773028  0.59397696    -0.69900
O340        O  0.22202846  0.29679765  0.59397821    -0.70000
O341        O  0.21087135  0.28128897  0.53757990    -0.69900
O342        O  0.30365924  0.23323495  0.53757615    -0.69900
O343        O  0.23323857  0.21086548  0.53758182    -0.69900
O344        O  0.28129109  0.30365760  0.53757295    -0.70100
V345        V  0.25727115  0.25726420  0.59433696     1.35200
V346        V  0.25726523  0.25726159  0.53819765     1.35200
C347        C  0.30255351  0.31009501  0.56409123     0.79400
C348        C  0.21197714  0.20443635  0.56410165     0.79400
C349        C  0.31009565  0.21197387  0.56409623     0.79300
C350        C  0.20444004  0.30255178  0.56409938     0.79300
N351        N  0.17698850  0.18729065  0.55698143    -0.01600
C352        C  0.14941835  0.18437598  0.58200982     0.01000
C353        C  0.11644151  0.17751713  0.56424167    -0.21900
C354        C  0.12424523  0.17533719  0.52726806    -0.22100
C355        C  0.16188406  0.18058497  0.52312806     0.00900
H356        H  0.09045177  0.17017437  0.57698517     0.14700
H357        H  0.10533796  0.16579364  0.50621718     0.14700
N358        N  0.18728119  0.33753482  0.55697892    -0.01600
C359        C  0.18435530  0.36510790  0.58200496     0.01000
C360        C  0.17748581  0.39808167  0.56423285    -0.21900
C361        C  0.17531056  0.39027289  0.52725986    -0.22100
C362        C  0.18057184  0.35263407  0.52312397     0.00900
H363        H  0.17013368  0.42407102  0.57697317     0.14700
H364        H  0.16576151  0.40917528  0.50620626     0.14700
N365        N  0.32725381  0.17699063  0.55697651    -0.01600
C366        C  0.33018336  0.14941961  0.58200510     0.01000
C367        C  0.33706034  0.11644625  0.56423678    -0.21900
C368        C  0.33923618  0.12425319  0.52726326    -0.22100
C369        C  0.33396783  0.16189097  0.52312322     0.00900
H370        H  0.34441692  0.09045833  0.57698085     0.18900
H371        H  0.34878952  0.10535129  0.50621245     0.14700
N372        N  0.33753120  0.32726165  0.55696967    -0.01600
C373        C  0.36510204  0.33019855  0.58199659     0.01000
C374        C  0.39807117  0.33708443  0.56422665    -0.21900
C375        C  0.39026174  0.33925843  0.52725374    -0.22100
C376        C  0.35262684  0.33398069  0.52311565     0.00900
H377        H  0.42405704  0.34444692  0.57696924     0.14700
H378        H  0.40915992  0.34881678  0.50620086     0.14700
O379        O  0.21087371  0.23323617  0.97693692    -0.69900
O380        O  0.30366023  0.28129292  0.97692793    -0.70100
O381        O  0.23323871  0.30365889  0.97693231    -0.69900
O382        O  0.28129418  0.21086827  0.97693244    -0.70000
O383        O  0.29679400  0.22201846  0.92053154    -0.69900
O384        O  0.21772882  0.29250534  0.92053356    -0.69900
O385        O  0.29250275  0.29679572  0.92052798    -0.69900
O386        O  0.22201849  0.21772806  0.92053699    -0.70100
V387        V  0.25726690  0.25726388  0.97631242     1.35200
V388        V  0.25726107  0.25726164  0.92017295     1.35200
C389        C  0.20443546  0.21197489  0.95041803     0.79400
C390        C  0.31008922  0.30255475  0.95040700     0.79400
C391        C  0.21197508  0.31009138  0.95041330     0.79300
C392        C  0.30255401  0.20443515  0.95041246     0.79300
N393        N  0.18727137  0.17699484  0.95753898    -0.01600
C394        C  0.18433613  0.14942419  0.93251166     0.01000
C395        C  0.17745231  0.11645242  0.95028120    -0.21900
C396        C  0.17527790  0.12426057  0.98725431    -0.22100
C397        C  0.18055386  0.16189729  0.99139271     0.00900
H398        H  0.17009081  0.09046589  0.93753817     0.14700
H399        H  0.16572087  0.10536036  0.50830639     0.14700
N400        N  0.17699231  0.32724755  0.95753442    -0.01600
C401        C  0.14942024  0.33017354  0.93250749     0.01000
C402        C  0.11644726  0.33703847  0.95027838    -0.21900
C403        C  0.12425558  0.33921054  0.98725179    -0.22100
C404        C  0.16189330  0.33395256  0.99138917     0.00900
H405        H  0.09045818  0.34438972  0.93753714     0.14700
H406        H  0.10535297  0.34875642  0.50830500     0.14700
N407        N  0.33753968  0.18728331  0.95753279    -0.01600
C408        C  0.36510990  0.18436356  0.93250479     0.01000
C409        C  0.39808491  0.17749835  0.95027386    -0.21900
C410        C  0.39028011  0.17531973  0.98724731    -0.22100
C411        C  0.35264231  0.18057461  0.99138668     0.00900
H412        H  0.42407332  0.17015095  0.93753098     0.14700
H413        H  0.40918536  0.16577200  0.50829944     0.14700
N414        N  0.32723969  0.33754236  0.95752471    -0.01600
C415        C  0.33015912  0.36511183  0.93249386     0.01000
C416        C  0.33701445  0.39809119  0.95025998    -0.21900
C417        C  0.33918694  0.39028966  0.98723482    -0.22100
C418        C  0.33393874  0.35264939  0.99137809     0.00900
H419        H  0.34435909  0.42408168  0.93751502     0.14700
H420        H  0.34872690  0.40919928  0.50828567     0.14700
O421        O  0.29250176  0.09399303  0.79679791    -0.69900
O422        O  0.22201811  0.09400133  0.71772888    -0.70100
O423        O  0.21772646  0.09399790  0.79250538    -0.69900
O424        O  0.29679190  0.09399638  0.72202191    -0.70000
O425        O  0.28128416  0.03759700  0.71086800    -0.69900
O426        O  0.23322724  0.03759611  0.80365539    -0.69900
O427        O  0.21086255  0.03760063  0.73323049    -0.69900
O428        O  0.30364815  0.03759221  0.78129132    -0.70100
V429        V  0.25725939  0.09435664  0.75726373     1.35200
V430        V  0.25725538  0.03821653  0.75726147     1.35200
C431        C  0.31008537  0.06411181  0.80255237     0.79400
C432        C  0.20443309  0.06412194  0.71196872     0.79400
C433        C  0.21196728  0.06411681  0.81008844     0.79300
C434        C  0.30254716  0.06411625  0.70443663     0.79300
N435        N  0.18728438  0.05700426  0.67698019    -0.01600
C436        C  0.18436606  0.08203597  0.64941138     0.01000
C437        C  0.17751458  0.06427039  0.61643103    -0.21900
C438        C  0.17534347  0.02729469  0.62423148    -0.22100
C439        C  0.18058846  0.02315075  0.66187210     0.00900
H440        H  0.17017143  0.07701560  0.59044082     0.14700
H441        H  0.16580575  0.00624429  0.60532084     0.14700
N442        N  0.33753093  0.05699459  0.68728374    -0.01600
C443        C  0.36510303  0.08202117  0.68436094     0.01000
C444        C  0.39807699  0.06424920  0.67750152    -0.21900
C445        C  0.39026910  0.02727533  0.67532951    -0.22100
C446        C  0.35263075  0.02313897  0.68058206     0.00900
H447        H  0.42406623  0.07698942  0.67015347     0.14700
H448        H  0.40917264  0.00622128  0.66578658     0.14700
N449        N  0.17698247  0.05699713  0.82724067    -0.01600
C450        C  0.14941256  0.08202626  0.83016181     0.01000
C451        C  0.11643742  0.06425772  0.83702454    -0.21900
C452        C  0.12424180  0.02728351  0.83920003    -0.22100
C453        C  0.16187955  0.02314303  0.83394619     0.00900
H454        H  0.09044898  0.07700129  0.84437249     0.14700
H455        H  0.10533610  0.00623153  0.84874529     0.14700
N456        N  0.32724812  0.05699117  0.83753336    -0.01600
C457        C  0.33018169  0.08201978  0.86510306     0.01000
C458        C  0.33705795  0.06425081  0.89807679    -0.21900
C459        C  0.33922925  0.02727648  0.89027104    -0.22100
C460        C  0.33395920  0.02313693  0.85263367     0.00900
H461        H  0.34441621  0.07699390  0.92406355     0.14700
H462        H  0.34878128  0.00622478  0.90917310     0.14700
O463        O  0.23323111  0.47695455  0.71086703    -0.69900
O464        O  0.28128230  0.47694673  0.80366022    -0.70100
O465        O  0.30365031  0.47694806  0.73323826    -0.69900
O466        O  0.21086182  0.47695160  0.78128835    -0.70000
O467        O  0.22200998  0.42055066  0.79679419    -0.69900
O468        O  0.29249451  0.42054957  0.71772858    -0.69900
O469        O  0.29678536  0.42054694  0.79250526    -0.69900
O470        O  0.21771970  0.42055529  0.72201589    -0.70100
V471        V  0.25725620  0.47633034  0.75726361     1.35200
V472        V  0.25725213  0.42019068  0.75726124     1.35200
C473        C  0.21196874  0.45043643  0.70442960     0.79400
C474        C  0.30254447  0.45042681  0.81009049     0.79400
C475        C  0.31008217  0.45042867  0.71197530     0.79300
C476        C  0.20442643  0.45043151  0.80254959     0.79300
N477        N  0.17699107  0.45755916  0.68726199    -0.01600
C478        C  0.14941937  0.43253349  0.68432481     0.01000
C479        C  0.11645147  0.45030518  0.67743343    -0.21900
C480        C  0.12426245  0.48727787  0.67525605    -0.22100
C481        C  0.16189715  0.49141367  0.68053772     0.00900
H482        H  0.09046607  0.43756376  0.67006957     0.14700
H483        H  0.10536628  0.00833103  0.66569407     0.14700
N484        N  0.32724094  0.45754992  0.67699317    -0.01600
C485        C  0.33016720  0.43252480  0.64941922     0.01000
C486        C  0.33704054  0.45029826  0.61644754    -0.21900
C487        C  0.33921802  0.48727089  0.62425842    -0.22100
C488        C  0.33395410  0.49140519  0.66189651     0.00900
H489        H  0.34439433  0.43755820  0.59045809     0.14700
H490        H  0.34877019  0.00832520  0.60535808     0.14700
N491        N  0.18726781  0.45755173  0.83753191    -0.01600
C492        C  0.18433855  0.43252378  0.86510349     0.01000
C493        C  0.17746097  0.45029335  0.89807593    -0.21900
C494        C  0.17528451  0.48726689  0.89026770    -0.22100
C495        C  0.18055297  0.49140579  0.85263052     0.00900
H496        H  0.17010479  0.43755052  0.92406275     0.14700
H497        H  0.16573103  0.00831847  0.90916870     0.14700
N498        N  0.33753142  0.45754703  0.82724050    -0.01600
C499        C  0.36510190  0.43251844  0.83016011     0.01000
C500        C  0.39807672  0.45028658  0.83702747    -0.21900
C501        C  0.39027154  0.48726023  0.83920758    -0.22100
C502        C  0.35263363  0.49140034  0.83395153     0.00900
H503        H  0.42406594  0.43754234  0.84437541     0.14700
H504        H  0.40917641  0.00831108  0.84875598     0.14700
C505        C  0.39378059  0.35966509  0.67325445     0.82100
N506        N  0.38833138  0.33645807  0.64434016    -0.76200
C507        C  0.35964836  0.34127472  0.62072974     0.84600
N508        N  0.33643663  0.37018384  0.62618359    -0.76100
C509        C  0.34125272  0.39379304  0.65486852     0.84700
N510        N  0.37016662  0.38834408  0.67807594    -0.77800
O511        O  0.09397585  0.29681323  0.79249705    -0.69900
O512        O  0.09398511  0.21774864  0.72200736    -0.70100
O513        O  0.09398078  0.29252658  0.71771901    -0.69900
O514        O  0.09398058  0.22203578  0.79678381    -0.70000
O515        O  0.03758351  0.21088146  0.78127450    -0.69900
O516        O  0.03758172  0.30367397  0.73322014    -0.69900
O517        O  0.03758668  0.23325016  0.71085113    -0.69900
O518        O  0.03757813  0.28130348  0.80364225    -0.70100
V519        V  0.09434012  0.25728126  0.75725168     1.35200
V520        V  0.03820257  0.25727741  0.75724671     1.35200
C521        C  0.06409587  0.30256533  0.81008104     0.79400
C522        C  0.06410676  0.21198893  0.70442127     0.79400
C523        C  0.06410097  0.31010986  0.71196040     0.79300
C524        C  0.06410213  0.20444909  0.80253820     0.79300
N525        N  0.05698859  0.17700102  0.68727122    -0.01600
C526        C  0.08201798  0.14943120  0.68435072     0.01000
C527        C  0.06425163  0.11645271  0.67749221    -0.21900
C528        C  0.02727823  0.12425515  0.67531914    -0.22100
C529        C  0.02313620  0.16189498  0.68057024     0.00900
H530        H  0.07699532  0.09046303  0.67014635     0.14700
H531        H  0.00622736  0.10534641  0.66577729     0.14700
N532        N  0.05698136  0.32726654  0.67697576    -0.01600
C533        C  0.08200931  0.33019263  0.64940591     0.01000
C534        C  0.06424182  0.33706251  0.61643021    -0.21900
C535        C  0.02726916  0.33923677  0.62423423    -0.22100
C536        C  0.02312879  0.33397503  0.66187247     0.00900
H537        H  0.07698492  0.34441447  0.59044233     0.14700
H538        H  0.00621866  0.34878509  0.60532908     0.14700
N539        N  0.05698207  0.18729299  0.83752255    -0.01600
C540        C  0.08200878  0.18436866  0.86509519     0.01000
C541        C  0.06423933  0.17750340  0.89806984    -0.21900
C542        C  0.02726703  0.17532914  0.89026198    -0.22100
C543        C  0.02312906  0.18058658  0.85262284     0.00900
H544        H  0.07698083  0.17015341  0.92406005     0.14700
H545        H  0.00621511  0.16578284  0.90916571     0.14700
N546        N  0.05697493  0.33754498  0.82724621    -0.01600
C547        C  0.08200130  0.36511630  0.83018053     0.01000
C548        C  0.06423263  0.39808798  0.83706422    -0.21900
C549        C  0.02726103  0.39027942  0.83923935    -0.22100
C550        C  0.02312245  0.35264274  0.83396423     0.00900
H551        H  0.07697508  0.42407448  0.84442450     0.14700
H552        H  0.00620955  0.40917977  0.84879649     0.14700
O553        O  0.47694423  0.21088406  0.73322593    -0.69900
O554        O  0.47693464  0.30367615  0.78127894    -0.70100
O555        O  0.47693835  0.23325240  0.80364769    -0.69900
O556        O  0.47694023  0.28130647  0.71085594    -0.70000
O557        O  0.42054122  0.29680916  0.72200193    -0.69900
O558        O  0.42054131  0.21774384  0.79249251    -0.69900
O559        O  0.42053665  0.29252082  0.79677936    -0.69900
O560        O  0.42054605  0.22203055  0.71771571    -0.70100
V561        V  0.47631929  0.25727998  0.75725210     1.35200
V562        V  0.42018176  0.25727625  0.75724708     1.35200
C563        C  0.45042618  0.20444613  0.71196370     0.79400
C564        C  0.45041491  0.31010638  0.80253971     0.79400
C565        C  0.45041983  0.21198929  0.81007995     0.79300
C566        C  0.45042090  0.30256683  0.70441921     0.79300
N567        N  0.45754663  0.18728217  0.67698367    -0.01600
C568        C  0.43251930  0.18434882  0.64941270     0.01000
C569        C  0.45028706  0.17746839  0.61644060    -0.21900
C570        C  0.48725920  0.17529420  0.62424839    -0.22100
C571        C  0.49139887  0.18056660  0.66188517     0.00900
H572        H  0.43754402  0.17010962  0.59045383     0.14700
H573        H  0.00831019  0.16573870  0.60534783     0.14700
N574        N  0.45753987  0.33755103  0.68726145    -0.01600
C575        C  0.43251141  0.36512126  0.68433475     0.01000
C576        C  0.45027764  0.39809645  0.67746085    -0.21900
C577        C  0.48725015  0.39029171  0.67528438    -0.22100
C578        C  0.49139153  0.35265352  0.68054902     0.00900
H579        H  0.43753342  0.42408398  0.67010744     0.14700
H580        H  0.00829970  0.40919582  0.66573322     0.14700
N581        N  0.45754059  0.17700530  0.82723733    -0.01600
C582        C  0.43251485  0.14943246  0.83016385     0.01000
C583        C  0.45028588  0.11645812  0.83703123    -0.21900
C584        C  0.48725813  0.12426654  0.83920421    -0.22100
C585        C  0.49139443  0.16190564  0.83394393     0.00900
H586        H  0.43754588  0.09046848  0.84438295     0.14700
H587        H  0.00831098  0.10536345  0.84875175     0.14700
N588        N  0.45753355  0.32725565  0.83752778    -0.01600
C589        C  0.43250479  0.33017450  0.86509744     0.01000
C590        C  0.45027178  0.33703134  0.89807604    -0.21900
C591        C  0.48724495  0.33920487  0.89027389    -0.22100
C592        C  0.49138620  0.33395591  0.85263411     0.00900
H593        H  0.43752859  0.34437585  0.92406577     0.14700
H594        H  0.00829618  0.34874579  0.90918289     0.14700
C595        C  0.15487214  0.17328945  0.62074036     0.82100
N596        N  0.12619106  0.17809999  0.64435256    -0.76200
C597        C  0.12074630  0.15488661  0.67326279     0.84600
N598        N  0.14436115  0.12620654  0.67807658    -0.76100
C599        C  0.17327311  0.12076451  0.65486695     0.84700
N600        N  0.17808593  0.14438078  0.62618784    -0.77800
C601        C  0.39377613  0.84126251  0.35964225     0.82100
N602        N  0.38832977  0.87017420  0.33643060    -0.76200
C603        C  0.35964820  0.89378634  0.34124234     0.84600
N604        N  0.33643522  0.88833708  0.37015027    -0.76100
C605        C  0.34124970  0.85965655  0.39376501     0.84700
N606        N  0.37016226  0.83644715  0.38832184    -0.77800
C607        C  0.17326873  0.85965805  0.12073581     0.82100
N608        N  0.17808525  0.88834268  0.14434520    -0.76200
C609        C  0.15487238  0.89379884  0.17325201     0.84600
N610        N  0.12618857  0.87018981  0.17806745    -0.76100
C611        C  0.12073978  0.84127464  0.15486125     0.84700
N612        N  0.14435394  0.83645204  0.12618323    -0.77800
C613        C  0.39378548  0.65488334  0.34125015     0.82100
N614        N  0.38833700  0.67809465  0.37016108    -0.76200
C615        C  0.35965672  0.67327830  0.39377350     0.84600
N616        N  0.33644812  0.64436525  0.38832594    -0.76100
C617        C  0.34126460  0.62075104  0.35964611     0.84700
N618        N  0.37017504  0.62619956  0.33643605    -0.77800
C619        C  0.12073855  0.67328195  0.35964415     0.82100
N620        N  0.14434861  0.67809443  0.38832861    -0.76200
C621        C  0.17325711  0.65488137  0.39377924     0.84600
N622        N  0.17807295  0.62620096  0.37016545    -0.76100
C623        C  0.15486595  0.62075636  0.34125016     0.84700
N624        N  0.12618677  0.64437109  0.33643259    -0.77800
C625        C  0.15486966  0.84126241  0.39377700     0.82100
N626        N  0.17807674  0.87017688  0.38832944    -0.76200
C627        C  0.17325693  0.89379160  0.35964926     0.84600
N628        N  0.14434354  0.88834364  0.33644125    -0.76100
C629        C  0.12073319  0.85966067  0.34125731     0.84700
N630        N  0.12618649  0.83644720  0.37016623    -0.77800
C631        C  0.34126531  0.65487546  0.12073674     0.82100
N632        N  0.33644647  0.62619638  0.14435262    -0.76200
C633        C  0.35965355  0.62075073  0.17326800     0.84600
N634        N  0.38833618  0.64436198  0.17808252    -0.76100
C635        C  0.39378824  0.67327006  0.15486788     0.84700
N636        N  0.37017758  0.67808448  0.12618444    -0.77800
O637        O  0.29680311  0.79250916  0.09397229    -0.69900
O638        O  0.21773847  0.72202103  0.09398145    -0.70100
O639        O  0.29251366  0.71773042  0.09397700    -0.69900
O640        O  0.22202858  0.79679779  0.09397833    -0.70000
O641        O  0.21087145  0.78128911  0.03758003    -0.69900
O642        O  0.30365939  0.73323509  0.03757619    -0.69900
O643        O  0.23323873  0.71086562  0.03758189    -0.69900
O644        O  0.28129124  0.80365773  0.03757302    -0.70100
V645        V  0.25727130  0.75726433  0.09433702     1.35200
V646        V  0.25726536  0.75726174  0.03819771     1.35200
C647        C  0.30255377  0.81009504  0.06409135     0.79400
C648        C  0.21197735  0.70443652  0.06410175     0.79400
C649        C  0.31009582  0.71197399  0.06409625     0.79300
C650        C  0.20444016  0.80255194  0.06409953     0.79300
N651        N  0.17698865  0.68729079  0.05698148    -0.01600
C652        C  0.14941859  0.68437603  0.08200990     0.01000
C653        C  0.11644175  0.67751710  0.06424174    -0.21900
C654        C  0.12424546  0.67533735  0.02726821    -0.22100
C655        C  0.16188423  0.68058517  0.02312814     0.00900
H656        H  0.09045204  0.67017418  0.07698533     0.14700
H657        H  0.10533776  0.66579362  0.00621688     0.14700
N658        N  0.18728134  0.83753496  0.05697902    -0.01600
C659        C  0.18435549  0.86510802  0.08200512     0.01000
C660        C  0.17748615  0.89808182  0.06423304    -0.21900
C661        C  0.17531100  0.89027308  0.02726006    -0.22100
C662        C  0.18057216  0.85263429  0.02312409     0.00900
H663        H  0.17013410  0.92407124  0.07697345     0.14700
H664        H  0.16576197  0.90917572  0.00620626     0.14700
N665        N  0.32725394  0.67699069  0.05697655    -0.01600
C666        C  0.33018349  0.64941960  0.08200503     0.01000
C667        C  0.33706069  0.61644608  0.06423673    -0.21900
C668        C  0.33923656  0.62425341  0.02726318    -0.22100
C669        C  0.33396816  0.66189112  0.02312321     0.00900
H670        H  0.34441688  0.59045935  0.07698015     0.18900
H671        H  0.34878997  0.60535127  0.00621208     0.14700
N672        N  0.33753145  0.82726171  0.05696973    -0.01600
C673        C  0.36510228  0.83019854  0.08199669     0.01000
C674        C  0.39807163  0.83708457  0.06422687    -0.21900
C675        C  0.39026206  0.83925862  0.02725375    -0.22100
C676        C  0.35262710  0.83398086  0.02311579     0.00900
H677        H  0.42405616  0.84444664  0.07696881     0.14700
H678        H  0.40915989  0.84881676  0.00620145     0.14700
O679        O  0.21087359  0.73323611  0.47693674    -0.69900
O680        O  0.30366017  0.78129277  0.47692786    -0.70100
O681        O  0.23323871  0.80365878  0.47693215    -0.69900
O682        O  0.28129400  0.71086813  0.47693225    -0.70000
O683        O  0.29679394  0.72201845  0.42053142    -0.69900
O684        O  0.21772879  0.79250525  0.42053342    -0.69900
O685        O  0.29250278  0.79679561  0.42052791    -0.69900
O686        O  0.22201833  0.71772809  0.42053679    -0.70100
V687        V  0.25726680  0.75726377  0.47631226     1.35200
V688        V  0.25726102  0.75726160  0.42017280     1.35200
C689        C  0.20443534  0.71197483  0.45041780     0.79400
C690        C  0.31008924  0.80255461  0.45040689     0.79400
C691        C  0.21197497  0.81009125  0.45041320     0.79300
C692        C  0.30255388  0.70443506  0.45041226     0.79300
N693        N  0.18727144  0.67699470  0.45753884    -0.01600
C694        C  0.18433618  0.64942406  0.43251153     0.01000
C695        C  0.17745241  0.61645210  0.45028104    -0.21900
C696        C  0.17527804  0.62426042  0.48725428    -0.22100
C697        C  0.18055393  0.66189715  0.49139256     0.00900
H698        H  0.17009130  0.59046650  0.43753856     0.14700
H699        H  0.16572110  0.60536048  0.00830656     0.14700
N700        N  0.17699224  0.82724726  0.45753440    -0.01600
C701        C  0.14942013  0.83017324  0.43250742     0.01000
C702        C  0.11644730  0.83703805  0.45027831    -0.21900
C703        C  0.12425531  0.83921015  0.48725177    -0.22100
C704        C  0.16189311  0.83395226  0.49138913     0.00900
H705        H  0.09045747  0.84438951  0.43753669     0.14700
H706        H  0.10535328  0.84875688  0.00830517     0.14700
N707        N  0.33753951  0.68728313  0.45753261    -0.01600
C708        C  0.36510977  0.68436324  0.43250467     0.01000
C709        C  0.39808469  0.67749768  0.45027380    -0.21900
C710        C  0.39027975  0.67531910  0.48724718    -0.22100
C711        C  0.35264203  0.68057421  0.49138649     0.00900
H712        H  0.42407311  0.67015012  0.43753098     0.14700
H713        H  0.40918530  0.66577244  0.00829886     0.14700
N714        N  0.32723982  0.83754216  0.45752460    -0.01600
C715        C  0.33015935  0.86511162  0.43249374     0.01000
C716        C  0.33701485  0.89809105  0.45025985    -0.21900
C717        C  0.33918736  0.89028939  0.48723475    -0.22100
C718        C  0.33393899  0.85264916  0.49137795     0.00900
H719        H  0.34435948  0.92408096  0.43751521     0.14700
H720        H  0.34872751  0.90919963  0.00828603     0.14700
O721        O  0.29250174  0.59399276  0.29679781    -0.69900
O722        O  0.22201796  0.59400110  0.21772887    -0.70100
O723        O  0.21772634  0.59399765  0.29250541    -0.69900
O724        O  0.29679180  0.59399607  0.22202186    -0.70000
O725        O  0.28128399  0.53759671  0.21086796    -0.69900
O726        O  0.23322708  0.53759585  0.30365539    -0.69900
O727        O  0.21086233  0.53760044  0.23323055    -0.69900
O728        O  0.30364806  0.53759192  0.28129124    -0.70100
V729        V  0.25725928  0.59435636  0.25726371     1.35200
V730        V  0.25725522  0.53821625  0.25726145     1.35200
C731        C  0.31008543  0.56411152  0.30255218     0.79400
C732        C  0.20443291  0.56412178  0.21196872     0.79400
C733        C  0.21196714  0.56411647  0.31008845     0.79300
C734        C  0.30254701  0.56411590  0.20443658     0.79300
N735        N  0.18728417  0.55700401  0.17698024    -0.01600
C736        C  0.18436576  0.58203573  0.14941139     0.01000
C737        C  0.17751405  0.56427013  0.11643106    -0.21900
C738        C  0.17534278  0.52729446  0.12423164    -0.22100
C739        C  0.18058799  0.52315053  0.16187221     0.00900
H740        H  0.17017100  0.57701522  0.09044103     0.14700
H741        H  0.16580485  0.50624396  0.10532099     0.14700
N742        N  0.33753076  0.55699424  0.18728365    -0.01600
C743        C  0.36510286  0.58202080  0.18436086     0.01000
C744        C  0.39807676  0.56424877  0.17750156    -0.21900
C745        C  0.39026895  0.52727493  0.17532964    -0.22100
C746        C  0.35263057  0.52313858  0.18058205     0.00900
H747        H  0.42406646  0.57698920  0.17015345     0.14700
H748        H  0.40917254  0.50622079  0.16578687     0.14700
N749        N  0.17698224  0.55699692  0.32724062    -0.01600
C750        C  0.14941242  0.58202601  0.33016180     0.01000
C751        C  0.11643718  0.56425765  0.33702478    -0.21900
C752        C  0.12424157  0.52728327  0.33920043    -0.22100
C753        C  0.16187936  0.52314279  0.33394630     0.00900
H754        H  0.09044935  0.57700091  0.34437254     0.14700
H755        H  0.10533640  0.50623195  0.34874560     0.14700
N756        N  0.32724844  0.55699104  0.33753306    -0.01600
C757        C  0.33018204  0.58201957  0.36510281     0.01000
C758        C  0.33705859  0.56425052  0.39807643    -0.21900
C759        C  0.33922986  0.52727644  0.39027048    -0.22100
C760        C  0.33395967  0.52313672  0.35263334     0.00900
H761        H  0.34441710  0.57699377  0.42406346     0.14700
H762        H  0.34878253  0.50622355  0.40917340     0.14700
O763        O  0.23323094  0.97695435  0.21086714    -0.69900
O764        O  0.28128224  0.97694650  0.30366026    -0.70100
O765        O  0.30365007  0.97694786  0.23323830    -0.69900
O766        O  0.21086167  0.97695139  0.28128851    -0.70000
O767        O  0.22200982  0.92055044  0.29679437    -0.69900
O768        O  0.29249433  0.92054933  0.21772868    -0.69900
O769        O  0.29678511  0.92054661  0.29250539    -0.69900
O770        O  0.21771957  0.92055506  0.22201591    -0.70100
V771        V  0.25725603  0.97633012  0.25726371     1.35200
V772        V  0.25725193  0.92019042  0.25726134     1.35200
C773        C  0.21196860  0.95043626  0.20442965     0.79400
C774        C  0.30254437  0.95042655  0.31009057     0.79400
C775        C  0.31008197  0.95042846  0.21197536     0.79300
C776        C  0.20442631  0.95043136  0.30254980     0.79300
N777        N  0.17699090  0.95755901  0.18726216    -0.01600
C778        C  0.14941923  0.93253336  0.18432506     0.01000
C779        C  0.11645126  0.95030505  0.17743390    -0.21900
C780        C  0.12426224  0.98727771  0.17525655    -0.22100
C781        C  0.16189692  0.99141356  0.18053801     0.00900
H782        H  0.09046585  0.93756362  0.17007012     0.14700
H783        H  0.10536579  0.50833061  0.16569457     0.14700
N784        N  0.32724083  0.95754969  0.17699332    -0.01600
C785        C  0.33016724  0.93252456  0.14941940     0.01000
C786        C  0.33704066  0.95029802  0.11644775    -0.21900
C787        C  0.33921802  0.98727053  0.12425869    -0.22100
C788        C  0.33395397  0.99140501  0.16189661     0.00900
H789        H  0.34439453  0.93755785  0.09045824     0.14700
H790        H  0.34876984  0.50832447  0.10535827     0.14700
N791        N  0.18726782  0.95755163  0.33753215    -0.01600
C792        C  0.18433855  0.93252369  0.36510370     0.01000
C793        C  0.17746087  0.95029321  0.39807610    -0.21900
C794        C  0.17528426  0.98726685  0.39026799    -0.22100
C795        C  0.18055280  0.99140568  0.35263071     0.00900
H796        H  0.17010463  0.93755033  0.42406306     0.14700
H797        H  0.16573092  0.50831865  0.40916903     0.14700
N798        N  0.33753135  0.95754671  0.32724042    -0.01600
C799        C  0.36510184  0.93251812  0.33015982     0.01000
C800        C  0.39807691  0.95028611  0.33702690    -0.21900
C801        C  0.39027170  0.98725994  0.33920699    -0.22100
C802        C  0.35263371  0.99140003  0.33395125     0.00900
H803        H  0.42406516  0.93754237  0.34437434     0.14700
H804        H  0.40917685  0.50831056  0.34875481     0.14700
C805        C  0.39378087  0.85966502  0.17325451     0.82100
N806        N  0.38833166  0.83645800  0.14434026    -0.76200
C807        C  0.35964864  0.84127457  0.12072985     0.84600
N808        N  0.33643677  0.87018361  0.12618379    -0.76100
C809        C  0.34125282  0.89379279  0.15486872     0.84700
N810        N  0.37016681  0.88834398  0.17807604    -0.77800
O811        O  0.09397591  0.79681337  0.29249700    -0.69900
O812        O  0.09398528  0.71774888  0.22200719    -0.70100
O813        O  0.09398088  0.79252677  0.21771897    -0.69900
O814        O  0.09398090  0.72203592  0.29678359    -0.70000
O815        O  0.03758377  0.71088163  0.28127439    -0.69900
O816        O  0.03758182  0.80367411  0.23322012    -0.69900
O817        O  0.03758680  0.73325029  0.21085106    -0.69900
O818        O  0.03757824  0.78130350  0.30364223    -0.70100
V819        V  0.09434028  0.75728145  0.25725156     1.35200
V820        V  0.03820272  0.75727753  0.25724666     1.35200
C821        C  0.06409597  0.80256540  0.31008097     0.79400
C822        C  0.06410690  0.71198911  0.20442116     0.79400
C823        C  0.06410101  0.81011002  0.21196035     0.79300
C824        C  0.06410245  0.70444923  0.30253804     0.79300
N825        N  0.05698878  0.67700112  0.18727120    -0.01600
C826        C  0.08201817  0.64943133  0.18435084     0.01000
C827        C  0.06425190  0.61645263  0.17749250    -0.21900
C828        C  0.02727832  0.62425512  0.17531958    -0.22100
C829        C  0.02313637  0.66189502  0.18057047     0.00900
H830        H  0.07699508  0.59046381  0.17014696     0.14700
H831        H  0.00622785  0.60534667  0.16577811     0.14700
N832        N  0.05698139  0.82726653  0.17697568    -0.01600
C833        C  0.08200930  0.83019253  0.14940578     0.01000
C834        C  0.06424179  0.83706238  0.11643013    -0.21900
C835        C  0.02726918  0.83923668  0.12423417    -0.22100
C836        C  0.02312877  0.83397501  0.16187239     0.00900
H837        H  0.07698493  0.84441435  0.09044217     0.14700
H838        H  0.00621852  0.84878505  0.10532889     0.14700
N839        N  0.05698242  0.68729315  0.33752234    -0.01600
C840        C  0.08200916  0.68436884  0.36509495     0.01000
C841        C  0.06423976  0.67750357  0.39806960    -0.21900
C842        C  0.02726745  0.67532933  0.39026184    -0.22100
C843        C  0.02312943  0.68058676  0.35262271     0.00900
H844        H  0.07698135  0.67015355  0.42405982     0.14700
H845        H  0.00621559  0.66578303  0.40916560     0.14700
N846        N  0.05697487  0.83754503  0.32724619    -0.01600
C847        C  0.08200134  0.86511633  0.33018053     0.01000
C848        C  0.06423268  0.89808786  0.33706437    -0.21900
C849        C  0.02726103  0.89027954  0.33923966    -0.22100
C850        C  0.02312252  0.85264275  0.33396440     0.00900
H851        H  0.07697552  0.92407497  0.34442489     0.14700
H852        H  0.00621012  0.90917938  0.34879660     0.14700
O853        O  0.47694438  0.71088393  0.23322584    -0.69900
O854        O  0.47693479  0.80367611  0.28127868    -0.70100
O855        O  0.47693849  0.73325238  0.30364762    -0.69900
O856        O  0.47694051  0.78130636  0.21085581    -0.70000
O857        O  0.42054143  0.79680900  0.22200158    -0.69900
O858        O  0.42054150  0.71774374  0.29249229    -0.69900
O859        O  0.42053678  0.79252080  0.29677907    -0.69900
O860        O  0.42054621  0.72203038  0.21771552    -0.70100
V861        V  0.47631949  0.75727990  0.25725196     1.35200
V862        V  0.42018194  0.75727615  0.25724683     1.35200
C863        C  0.45042635  0.70444593  0.21196364     0.79400
C864        C  0.45041506  0.81010641  0.30253939     0.79400
C865        C  0.45042003  0.71198931  0.31007982     0.79300
C866        C  0.45042113  0.80256673  0.20441897     0.79300
N867        N  0.45754676  0.68728163  0.17698369    -0.01600
C868        C  0.43251949  0.68434809  0.14941276     0.01000
C869        C  0.45028721  0.67746719  0.11644060    -0.21900
C870        C  0.48725940  0.67529291  0.12424858    -0.22100
C871        C  0.49139899  0.68056570  0.16188534     0.00900
H872        H  0.43754451  0.67010834  0.09045449     0.14700
H873        H  0.00831033  0.66573829  0.10534809     0.14700
N874        N  0.45754014  0.83755090  0.18726126    -0.01600
C875        C  0.43251167  0.86512122  0.18433480     0.01000
C876        C  0.45027798  0.89809637  0.17746090    -0.21900
C877        C  0.48725025  0.89029148  0.17528432    -0.22100
C878        C  0.49139181  0.85265345  0.18054875     0.00900
H879        H  0.43753355  0.92408420  0.17010748     0.14700
H880        H  0.00829971  0.90919590  0.16573296     0.14700
N881        N  0.45754072  0.67700530  0.32723735    -0.01600
C882        C  0.43251503  0.64943250  0.33016399     0.01000
C883        C  0.45028607  0.61645826  0.33703173    -0.21900
C884        C  0.48725828  0.62426671  0.33920485    -0.22100
C885        C  0.49139458  0.66190581  0.33394430     0.00900
H886        H  0.43754595  0.59046854  0.34438370     0.14700
H887        H  0.00831177  0.60536329  0.34875184     0.14700
N888        N  0.45753371  0.82725575  0.33752740    -0.01600
C889        C  0.43250504  0.83017460  0.36509714     0.01000
C890        C  0.45027209  0.83703149  0.39807565    -0.21900
C891        C  0.48724515  0.83920504  0.39027349    -0.22100
C892        C  0.49138640  0.83395605  0.35263371     0.00900
H893        H  0.43752872  0.84437610  0.42406582     0.14700
H894        H  0.00829631  0.84874574  0.40918312     0.14700
C895        C  0.15487233  0.67328939  0.12074042     0.82100
N896        N  0.12619133  0.67810004  0.14435264    -0.76200
C897        C  0.12074652  0.65488668  0.17326292     0.84600
N898        N  0.14436132  0.62620657  0.17807668    -0.76100
C899        C  0.17327315  0.62076437  0.15486700     0.84700
N900        N  0.17808605  0.64438060  0.12618783    -0.77800
C901        C  0.39377608  0.84126268  0.85964253     0.82100
N902        N  0.38832987  0.87017447  0.83643092    -0.76200
C903        C  0.35964831  0.89378661  0.84124257     0.84600
N904        N  0.33643522  0.88833737  0.87015042    -0.76100
C905        C  0.34124958  0.85965680  0.89376514     0.84700
N906        N  0.37016209  0.83644733  0.88832201    -0.77800
C907        C  0.17326853  0.85965794  0.62073575     0.82100
N908        N  0.17808519  0.88834261  0.64434502    -0.76200
C909        C  0.15487241  0.89379892  0.67325188     0.84600
N910        N  0.12618856  0.87018996  0.67806747    -0.76100
C911        C  0.12073968  0.84127464  0.65486144     0.84700
N912        N  0.14435377  0.83645193  0.62618338    -0.77800
C913        C  0.39378530  0.65488339  0.84125016     0.82100
N914        N  0.38833700  0.67809474  0.87016109    -0.76200
C915        C  0.35965679  0.67327847  0.89377362     0.84600
N916        N  0.33644812  0.64436546  0.88832617    -0.76100
C917        C  0.34126438  0.62075127  0.85964631     0.84700
N918        N  0.37017472  0.62619969  0.83643611    -0.77800
C919        C  0.12073828  0.67328192  0.85964448     0.82100
N920        N  0.14434834  0.67809440  0.88832895    -0.76200
C921        C  0.17325700  0.65488157  0.89377940     0.84600
N922        N  0.17807298  0.62620119  0.87016555    -0.76100
C923        C  0.15486595  0.62075658  0.84125024     0.84700
N924        N  0.12618668  0.64437121  0.83643279    -0.77800
C925        C  0.15486967  0.84126254  0.89377705     0.82100
N926        N  0.17807681  0.87017698  0.88832938    -0.76200
C927        C  0.17325691  0.89379165  0.85964918     0.84600
N928        N  0.14434344  0.88834371  0.83644128    -0.76100
C929        C  0.12073309  0.85966073  0.84125742     0.84700
N930        N  0.12618648  0.83644729  0.87016633    -0.77800
C931        C  0.34126521  0.65487560  0.62073673     0.82100
N932        N  0.33644647  0.62619655  0.64435264    -0.76200
C933        C  0.35965362  0.62075101  0.67326799     0.84600
N934        N  0.38833618  0.64436237  0.67808242    -0.76100
C935        C  0.39378811  0.67327044  0.65486781     0.84700
N936        N  0.37017739  0.67808472  0.62618431    -0.77800
O937        O  0.29680285  0.79250919  0.59397227    -0.69900
O938        O  0.21773826  0.72202094  0.59398126    -0.70100
O939        O  0.29251344  0.71773034  0.59397687    -0.69900
O940        O  0.22202834  0.79679768  0.59397820    -0.70000
O941        O  0.21087130  0.78128901  0.53757989    -0.69900
O942        O  0.30365924  0.73323500  0.53757606    -0.69900
O943        O  0.23323863  0.71086549  0.53758174    -0.69900
O944        O  0.28129107  0.80365769  0.53757295    -0.70100
V945        V  0.25727108  0.75726426  0.59433692     1.35200
V946        V  0.25726521  0.75726166  0.53819762     1.35200
C947        C  0.30255350  0.81009506  0.56409124     0.79400
C948        C  0.21197716  0.70443642  0.56410158     0.79400
C949        C  0.31009563  0.71197395  0.56409611     0.79300
C950        C  0.20443994  0.80255182  0.56409936     0.79300
N951        N  0.17698846  0.68729071  0.55698129    -0.01600
C952        C  0.14941841  0.68437601  0.58200977     0.01000
C953        C  0.11644147  0.67751716  0.56424169    -0.21900
C954        C  0.12424520  0.67533729  0.52726810    -0.22100
C955        C  0.16188398  0.68058506  0.52312799     0.00900
H956        H  0.09045207  0.67017449  0.57698517     0.14700
H957        H  0.10533752  0.66579357  0.50621693     0.14700
N958        N  0.18728109  0.83753485  0.55697893    -0.01600
C959        C  0.18435516  0.86510789  0.58200499     0.01000
C960        C  0.17748556  0.89808171  0.56423296    -0.21900
C961        C  0.17531020  0.89027289  0.52725996    -0.22100
C962        C  0.18057163  0.85263411  0.52312401     0.00900
H963        H  0.17013337  0.92407083  0.57697325     0.14700
H964        H  0.16576091  0.90917533  0.50620635     0.14700
N965        N  0.32725389  0.67699069  0.55697650    -0.01600
C966        C  0.33018328  0.64941966  0.58200505     0.01000
C967        C  0.33706019  0.61644623  0.56423676    -0.21900
C968        C  0.33923605  0.62425326  0.52726326    -0.22100
C969        C  0.33396786  0.66189102  0.52312317     0.00900
H970        H  0.34441658  0.59045864  0.57698068     0.18900
H971        H  0.34878934  0.60535108  0.50621221     0.14700
N972        N  0.33753127  0.82726163  0.55696972    -0.01600
C973        C  0.36510206  0.83019842  0.58199666     0.01000
C974        C  0.39807136  0.83708420  0.56422685    -0.21900
C975        C  0.39026194  0.83925816  0.52725381    -0.22100
C976        C  0.35262700  0.83398050  0.52311569     0.00900
H977        H  0.42405652  0.84444636  0.57696913     0.14700
H978        H  0.40915999  0.84881626  0.50620126     0.14700
O979        O  0.21087381  0.73323630  0.97693693    -0.69900
O980        O  0.30366035  0.78129299  0.97692796    -0.70100
O981        O  0.23323879  0.80365899  0.97693230    -0.69900
O982        O  0.28129417  0.71086839  0.97693237    -0.70000
O983        O  0.29679401  0.72201865  0.92053149    -0.69900
O984        O  0.21772882  0.79250539  0.92053359    -0.69900
O985        O  0.29250276  0.79679592  0.92052808    -0.69900
O986        O  0.22201855  0.71772825  0.92053696    -0.70100
V987        V  0.25726697  0.75726399  0.97631242     1.35200
V988        V  0.25726110  0.75726180  0.92017295     1.35200
C989        C  0.20443548  0.71197502  0.95041801     0.79400
C990        C  0.31008927  0.80255485  0.95040703     0.79400
C991        C  0.21197509  0.81009144  0.95041331     0.79300
C992        C  0.30255399  0.70443526  0.95041238     0.79300
N993        N  0.18727147  0.67699502  0.95753892    -0.01600
C994        C  0.18433626  0.64942429  0.93251162     0.01000
C995        C  0.17745269  0.61645251  0.95028118    -0.21900
C996        C  0.17527840  0.62426067  0.98725427    -0.22100
C997        C  0.18055418  0.66189736  0.99139269     0.00900
H998        H  0.17009128  0.59046592  0.93753817     0.14700
H999        H  0.16572085  0.60536055  0.50830620     0.14700
N1000       N  0.17699233  0.82724759  0.95753446    -0.01600
C1001       C  0.14942025  0.83017364  0.93250756     0.01000
C1002       C  0.11644723  0.83703877  0.95027841    -0.21900
C1003       C  0.12425560  0.83921086  0.98725196    -0.22100
C1004       C  0.16189336  0.83395270  0.99138920     0.00900
H1005       H  0.09045867  0.84438992  0.93753747     0.14700
H1006       H  0.10535289  0.84875609  0.50830497     0.14700
N1007       N  0.33753963  0.68728338  0.95753269    -0.01600
C1008       C  0.36510988  0.68436358  0.93250475     0.01000
C1009       C  0.39808490  0.67749818  0.95027381    -0.21900
C1010       C  0.39027998  0.67531956  0.98724725    -0.22100
C1011       C  0.35264223  0.68057455  0.99138660     0.00900
H1012       H  0.42407304  0.67015078  0.93753110     0.14700
H1013       H  0.40918509  0.66577191  0.50829895     0.14700
N1014       N  0.32723983  0.83754246  0.95752476    -0.01600
C1015       C  0.33015925  0.86511187  0.93249387     0.01000
C1016       C  0.33701464  0.89809132  0.95025995    -0.21900
C1017       C  0.33918710  0.89028971  0.98723484    -0.22100
C1018       C  0.33393887  0.85264946  0.99137809     0.00900
H1019       H  0.34435922  0.92408132  0.93751521     0.14700
H1020       H  0.34872780  0.90919916  0.50828588     0.14700
O1021       O  0.29250180  0.59399308  0.79679786    -0.69900
O1022       O  0.22201803  0.59400139  0.71772891    -0.70100
O1023       O  0.21772640  0.59399794  0.79250537    -0.69900
O1024       O  0.29679195  0.59399641  0.72202191    -0.70000
O1025       O  0.28128415  0.53759706  0.71086796    -0.69900
O1026       O  0.23322732  0.53759621  0.80365546    -0.69900
O1027       O  0.21086256  0.53760068  0.73323057    -0.69900
O1028       O  0.30364828  0.53759228  0.78129126    -0.70100
V1029       V  0.25725939  0.59435669  0.75726372     1.35200
V1030       V  0.25725543  0.53821660  0.75726147     1.35200
C1031       C  0.31008548  0.56411179  0.80255225     0.79400
C1032       C  0.20443301  0.56412199  0.71196876     0.79400
C1033       C  0.21196730  0.56411687  0.81008843     0.79300
C1034       C  0.30254718  0.56411627  0.70443662     0.79300
N1035       N  0.18728427  0.55700430  0.67698027    -0.01600
C1036       C  0.18436592  0.58203603  0.64941146     0.01000
C1037       C  0.17751440  0.56427052  0.61643099    -0.21900
C1038       C  0.17534333  0.52729476  0.62423151    -0.22100
C1039       C  0.18058832  0.52315080  0.66187211     0.00900
H1040       H  0.17017143  0.57701545  0.59044138     0.14700
H1041       H  0.16580560  0.50624438  0.60532082     0.14700
N1042       N  0.33753094  0.55699455  0.68728364    -0.01600
C1043       C  0.36510303  0.58202114  0.68436082     0.01000
C1044       C  0.39807685  0.56424911  0.67750139    -0.21900
C1045       C  0.39026918  0.52727528  0.67532944    -0.22100
C1046       C  0.35263078  0.52313894  0.68058204     0.00900
H1047       H  0.42406690  0.57698975  0.67015305     0.14700
H1048       H  0.40917261  0.50622133  0.66578658     0.14700
N1049       N  0.17698238  0.55699716  0.82724064    -0.01600
C1050       C  0.14941254  0.58202628  0.83016180     0.01000
C1051       C  0.11643721  0.56425786  0.83702454    -0.21900
C1052       C  0.12424164  0.52728344  0.83919999    -0.22100
C1053       C  0.16187949  0.52314309  0.83394605     0.00900
H1054       H  0.09044957  0.57700095  0.84437222     0.14700
H1055       H  0.10533658  0.50623218  0.84874488     0.14700
N1056       N  0.32724816  0.55699129  0.83753331    -0.01600
C1057       C  0.33018160  0.58201982  0.86510298     0.01000
C1058       C  0.33705780  0.56425086  0.89807674    -0.21900
C1059       C  0.33922908  0.52727661  0.89027090    -0.22100
C1060       C  0.33395917  0.52313696  0.85263361     0.00900
H1061       H  0.34441600  0.57699392  0.92406346     0.14700
H1062       H  0.34878130  0.50622440  0.90917337     0.14700
O1063       O  0.23323115  0.97695444  0.71086704    -0.69900
O1064       O  0.28128233  0.97694665  0.80366018    -0.70100
O1065       O  0.30365029  0.97694802  0.73323825    -0.69900
O1066       O  0.21086184  0.97695152  0.78128836    -0.70000
O1067       O  0.22200999  0.92055055  0.79679417    -0.69900
O1068       O  0.29249461  0.92054949  0.71772863    -0.69900
O1069       O  0.29678535  0.92054680  0.79250530    -0.69900
O1070       O  0.21771977  0.92055515  0.72201585    -0.70100
V1071       V  0.25725621  0.97633026  0.75726360     1.35200
V1072       V  0.25725217  0.92019057  0.75726124     1.35200
C1073       C  0.21196879  0.95043634  0.70442962     0.79400
C1074       C  0.30254452  0.95042671  0.81009050     0.79400
C1075       C  0.31008216  0.95042866  0.71197531     0.79300
C1076       C  0.20442647  0.95043151  0.80254959     0.79300
N1077       N  0.17699111  0.95755910  0.68726203    -0.01600
C1078       C  0.14941941  0.93253349  0.68432480     0.01000
C1079       C  0.11645151  0.95030525  0.67743341    -0.21900
C1080       C  0.12426266  0.98727779  0.67525608    -0.22100
C1081       C  0.16189723  0.99141367  0.68053771     0.00900
H1082       H  0.09046616  0.93756384  0.67006954     0.14700
H1083       H  0.10536672  0.50833033  0.66569443     0.14700
N1084       N  0.32724085  0.95754992  0.67699312    -0.01600
C1085       C  0.33016728  0.93252477  0.64941925     0.01000
C1086       C  0.33704069  0.95029822  0.61644756    -0.21900
C1087       C  0.33921810  0.98727080  0.62425847    -0.22100
C1088       C  0.33395403  0.99140524  0.66189649     0.00900
H1089       H  0.34439453  0.93755810  0.59045808     0.14700
H1090       H  0.34876989  0.50832497  0.60535831     0.14700
N1091       N  0.18726790  0.95755168  0.83753197    -0.01600
C1092       C  0.18433864  0.93252375  0.86510353     0.01000
C1093       C  0.17746114  0.95029328  0.89807587    -0.21900
C1094       C  0.17528461  0.98726691  0.89026792    -0.22100
C1095       C  0.18055309  0.99140576  0.85263060     0.00900
H1096       H  0.17010478  0.93755017  0.92406329     0.14700
H1097       H  0.16573059  0.50831917  0.90916908     0.14700
N1098       N  0.33753143  0.95754695  0.82724050    -0.01600
C1099       C  0.36510196  0.93251841  0.83016008     0.01000
C1100       C  0.39807690  0.95028652  0.83702748    -0.21900
C1101       C  0.39027154  0.98726025  0.83920758    -0.22100
C1102       C  0.35263364  0.99140027  0.83395155     0.00900
H1103       H  0.42406533  0.93754276  0.84437513     0.14700
H1104       H  0.40917654  0.50831121  0.84875606     0.14700
C1105       C  0.39378062  0.85966504  0.67325456     0.82100
N1106       N  0.38833140  0.83645794  0.64434031    -0.76200
C1107       C  0.35964843  0.84127465  0.62072982     0.84600
N1108       N  0.33643674  0.87018381  0.62618362    -0.76100
C1109       C  0.34125275  0.89379299  0.65486855     0.84700
N1110       N  0.37016667  0.88834402  0.67807601    -0.77800
O1111       O  0.09397571  0.79681329  0.79249712    -0.69900
O1112       O  0.09398503  0.71774873  0.72200749    -0.70100
O1113       O  0.09398073  0.79252664  0.71771915    -0.69900
O1114       O  0.09398065  0.72203583  0.79678389    -0.70000
O1115       O  0.03758355  0.71088153  0.78127463    -0.69900
O1116       O  0.03758164  0.80367398  0.73322020    -0.69900
O1117       O  0.03758657  0.73325015  0.71085128    -0.69900
O1118       O  0.03757802  0.78130346  0.80364232    -0.70100
V1119       V  0.09434005  0.75728133  0.75725178     1.35200
V1120       V  0.03820249  0.75727743  0.75724681     1.35200
C1121       C  0.06409572  0.80256536  0.81008107     0.79400
C1122       C  0.06410670  0.71198898  0.70442142     0.79400
C1123       C  0.06410084  0.81010988  0.71196052     0.79300
C1124       C  0.06410216  0.70444913  0.80253828     0.79300
N1125       N  0.05698858  0.67700111  0.68727122    -0.01600
C1126       C  0.08201797  0.64943131  0.68435067     0.01000
C1127       C  0.06425163  0.61645278  0.67749192    -0.21900
C1128       C  0.02727814  0.62425530  0.67531880    -0.22100
C1129       C  0.02313623  0.66189516  0.68057001     0.00900
H1130       H  0.07699505  0.59046356  0.67014601     0.14700
H1131       H  0.00622756  0.60534692  0.66577695     0.14700
N1132       N  0.05698128  0.82726641  0.67697584    -0.01600
C1133       C  0.08200919  0.83019247  0.64940601     0.01000
C1134       C  0.06424166  0.83706230  0.61643034    -0.21900
C1135       C  0.02726909  0.83923657  0.62423441    -0.22100
C1136       C  0.02312863  0.83397492  0.66187259     0.00900
H1137       H  0.07698483  0.84441429  0.59044239     0.14700
H1138       H  0.00621812  0.84878508  0.60532884     0.14700
N1139       N  0.05698215  0.68729303  0.83752263    -0.01600
C1140       C  0.08200880  0.68436862  0.86509524     0.01000
C1141       C  0.06423937  0.67750301  0.89806985    -0.21900
C1142       C  0.02726710  0.67532869  0.89026192    -0.22100
C1143       C  0.02312910  0.68058637  0.85262285     0.00900
H1144       H  0.07698082  0.67015298  0.92405988     0.14700
H1145       H  0.00621503  0.66578219  0.90916570     0.14700
N1146       N  0.05697474  0.83754500  0.82724625    -0.01600
C1147       C  0.08200114  0.86511629  0.83018072     0.01000
C1148       C  0.06423252  0.89808803  0.83706453    -0.21900
C1149       C  0.02726083  0.89027943  0.83923958    -0.22100
C1150       C  0.02312227  0.85264273  0.83396432     0.00900
H1151       H  0.07697479  0.92407408  0.84442468     0.14700
H1152       H  0.00620957  0.90917962  0.84879662     0.14700
O1153       O  0.47694420  0.71088386  0.73322585    -0.69900
O1154       O  0.47693472  0.80367600  0.78127881    -0.70100
O1155       O  0.47693830  0.73325226  0.80364765    -0.69900
O1156       O  0.47694026  0.78130634  0.71085595    -0.70000
O1157       O  0.42054120  0.79680897  0.72200185    -0.69900
O1158       O  0.42054125  0.71774372  0.79249244    -0.69900
O1159       O  0.42053675  0.79252068  0.79677930    -0.69900
O1160       O  0.42054599  0.72203033  0.71771567    -0.70100
V1161       V  0.47631931  0.75727980  0.75725204     1.35200
V1162       V  0.42018175  0.75727608  0.75724703     1.35200
C1163       C  0.45042615  0.70444594  0.71196360     0.79400
C1164       C  0.45041500  0.81010631  0.80253957     0.79400
C1165       C  0.45041982  0.71198919  0.81007989     0.79300
C1166       C  0.45042090  0.80256669  0.70441921     0.79300
N1167       N  0.45754661  0.68728202  0.67698358    -0.01600
C1168       C  0.43251927  0.68434865  0.64941260     0.01000
C1169       C  0.45028701  0.67746811  0.61644052    -0.21900
C1170       C  0.48725913  0.67529376  0.62424833    -0.22100
C1171       C  0.49139884  0.68056629  0.66188509     0.00900
H1172       H  0.43754392  0.67010934  0.59045366     0.14700
H1173       H  0.00831043  0.66573900  0.60534729     0.14700
N1174       N  0.45753992  0.83755092  0.68726149    -0.01600
C1175       C  0.43251147  0.86512117  0.68433487     0.01000
C1176       C  0.45027774  0.89809636  0.67746097    -0.21900
C1177       C  0.48725024  0.89029161  0.67528458    -0.22100
C1178       C  0.49139159  0.85265343  0.68054911     0.00900
H1179       H  0.43753357  0.92408381  0.67010753     0.14700
H1180       H  0.00829981  0.90919591  0.66573333     0.14700
N1181       N  0.45754054  0.67700516  0.82723716    -0.01600
C1182       C  0.43251477  0.64943238  0.83016373     0.01000
C1183       C  0.45028577  0.61645806  0.83703103    -0.21900
C1184       C  0.48725798  0.62426636  0.83920401    -0.22100
C1185       C  0.49139440  0.66190547  0.83394382     0.00900
H1186       H  0.43754550  0.59046807  0.84438292     0.14700
H1187       H  0.00831128  0.60536295  0.84875154     0.14700
N1188       N  0.45753364  0.82725567  0.83752761    -0.01600
C1189       C  0.43250492  0.83017450  0.86509734     0.01000
C1190       C  0.45027193  0.83703114  0.89807595    -0.21900
C1191       C  0.48724513  0.83920460  0.89027383    -0.22100
C1192       C  0.49138631  0.83395571  0.85263398     0.00900
H1193       H  0.43752877  0.84437557  0.92406579     0.14700
H1194       H  0.00829573  0.84874546  0.90918271     0.14700
C1195       C  0.15487215  0.67328953  0.62074034     0.82100
N1196       N  0.12619111  0.67810011  0.64435250    -0.76200
C1197       C  0.12074628  0.65488677  0.67326280     0.84600
N1198       N  0.14436117  0.62620672  0.67807663    -0.76100
C1199       C  0.17327311  0.62076464  0.65486706     0.84700
N1200       N  0.17808600  0.64438086  0.62618790    -0.77800
C1201       C  0.89377625  0.34126260  0.35964240     0.82100
N1202       N  0.88833003  0.37017428  0.33643075    -0.76200
C1203       C  0.85964840  0.39378644  0.34124226     0.84600
N1204       N  0.83643532  0.38833719  0.37015011    -0.76100
C1205       C  0.84124968  0.35965670  0.39376492     0.84700
N1206       N  0.87016223  0.33644723  0.38832189    -0.77800
C1207       C  0.67326871  0.35965811  0.12073583     0.82100
N1208       N  0.67808523  0.38834268  0.14434521    -0.76200
C1209       C  0.65487245  0.39379879  0.17325210     0.84600
N1210       N  0.62618864  0.37018975  0.17806754    -0.76100
C1211       C  0.62073983  0.34127460  0.15486130     0.84700
N1212       N  0.64435394  0.33645200  0.12618329    -0.77800
C1213       C  0.89378554  0.15488329  0.34125015     0.82100
N1214       N  0.88833710  0.17809473  0.37016096    -0.76200
C1215       C  0.85965683  0.17327843  0.39377346     0.84600
N1216       N  0.83644831  0.14436531  0.38832598    -0.76100
C1217       C  0.84126473  0.12075103  0.35964624     0.84700
N1218       N  0.87017516  0.12619949  0.33643609    -0.77800
C1219       C  0.62073862  0.17328192  0.35964437     0.82100
N1220       N  0.64434876  0.17809431  0.38832883    -0.76200
C1221       C  0.67325722  0.15488128  0.39377931     0.84600
N1222       N  0.67807308  0.12620088  0.37016547    -0.76100
C1223       C  0.65486594  0.12075632  0.34125021     0.84700
N1224       N  0.62618680  0.14437105  0.33643280    -0.77800
C1225       C  0.65486955  0.34126227  0.39377689     0.82100
N1226       N  0.67807673  0.37017671  0.38832945    -0.76200
C1227       C  0.67325700  0.39379153  0.35964940     0.84600
N1228       N  0.64434364  0.38834372  0.33644129    -0.76100
C1229       C  0.62073324  0.35966076  0.34125721     0.84700
N1230       N  0.62618642  0.33644719  0.37016601    -0.77800
C1231       C  0.84126522  0.15487560  0.12073673     0.82100
N1232       N  0.83644643  0.12619646  0.14435260    -0.76200
C1233       C  0.85965351  0.12075087  0.17326799     0.84600
N1234       N  0.88833607  0.14436216  0.17808254    -0.76100
C1235       C  0.89378811  0.17327028  0.15486791     0.84700
N1236       N  0.87017745  0.17808466  0.12618447    -0.77800
O1237       O  0.79680300  0.29250929  0.09397232    -0.69900
O1238       O  0.71773842  0.22202108  0.09398136    -0.70100
O1239       O  0.79251362  0.21773052  0.09397698    -0.69900
O1240       O  0.72202847  0.29679780  0.09397835    -0.70000
O1241       O  0.71087139  0.28128924  0.03758001    -0.69900
O1242       O  0.80365932  0.23323521  0.03757616    -0.69900
O1243       O  0.73323865  0.21086569  0.03758180    -0.69900
O1244       O  0.78129118  0.30365781  0.03757301    -0.70100
V1245       V  0.75727123  0.25726439  0.09433700     1.35200
V1246       V  0.75726529  0.25726184  0.03819769     1.35200
C1247       C  0.80255370  0.31009514  0.06409136     0.79400
C1248       C  0.71197728  0.20443654  0.06410171     0.79400
C1249       C  0.81009575  0.21197408  0.06409623     0.79300
C1250       C  0.70444012  0.30255199  0.06409950     0.79300
N1251       N  0.67698864  0.18729075  0.05698150    -0.01600
C1252       C  0.64941860  0.18437597  0.08201000     0.01000
C1253       C  0.61644169  0.17751701  0.06424192    -0.21900
C1254       C  0.62424538  0.17533728  0.02726832    -0.22100
C1255       C  0.66188414  0.18058512  0.02312821     0.00900
H1256       H  0.59045231  0.17017420  0.07698542     0.14700
H1257       H  0.60533770  0.16579362  0.00621712     0.14700
N1258       N  0.68728141  0.33753515  0.05697904    -0.01600
C1259       C  0.68435545  0.36510808  0.08200514     0.01000
C1260       C  0.67748607  0.39808201  0.06423318    -0.21900
C1261       C  0.67531088  0.39027330  0.02726013    -0.22100
C1262       C  0.68057212  0.35263446  0.02312411     0.00900
H1263       H  0.67013408  0.42407100  0.07697341     0.14700
H1264       H  0.66576189  0.40917577  0.00620665     0.14700
N1265       N  0.82725385  0.17699081  0.05697650    -0.01600
C1266       C  0.83018342  0.14941970  0.08200503     0.01000
C1267       C  0.83706061  0.11644630  0.06423669    -0.21900
C1268       C  0.83923649  0.12425348  0.02726321    -0.22100
C1269       C  0.83396807  0.16189118  0.02312319     0.00900
H1270       H  0.84441696  0.09045896  0.07698045     0.18900
H1271       H  0.84878992  0.10535130  0.00621206     0.14700
N1272       N  0.83753137  0.32726174  0.05696970    -0.01600
C1273       C  0.86510223  0.33019865  0.08199668     0.01000
C1274       C  0.89807153  0.33708462  0.06422685    -0.21900
C1275       C  0.89026199  0.33925874  0.02725374    -0.22100
C1276       C  0.85262705  0.33398088  0.02311574     0.00900
H1277       H  0.92405629  0.34444676  0.07696890     0.14700
H1278       H  0.90915976  0.34881697  0.00620152     0.14700
O1279       O  0.71087361  0.23323603  0.47693665    -0.69900
O1280       O  0.80366002  0.28129289  0.47692782    -0.70100
O1281       O  0.73323845  0.30365871  0.47693209    -0.69900
O1282       O  0.78129407  0.21086824  0.47693219    -0.70000
O1283       O  0.79679387  0.22201843  0.42053128    -0.69900
O1284       O  0.71772868  0.29250522  0.42053332    -0.69900
O1285       O  0.79250268  0.29679568  0.42052784    -0.69900
O1286       O  0.72201831  0.21772805  0.42053665    -0.70100
V1287       V  0.75726673  0.25726379  0.47631217     1.35200
V1288       V  0.75726094  0.25726160  0.42017268     1.35200
C1289       C  0.70443536  0.21197474  0.45041774     0.79400
C1290       C  0.81008908  0.30255478  0.45040674     0.79400
C1291       C  0.71197482  0.31009118  0.45041317     0.79300
C1292       C  0.80255392  0.20443519  0.45041217     0.79300
N1293       N  0.68727160  0.17699462  0.45753882    -0.01600
C1294       C  0.68433644  0.14942391  0.43251156     0.01000
C1295       C  0.67745285  0.11645201  0.45028108    -0.21900
C1296       C  0.67527849  0.12426029  0.48725430    -0.22100
C1297       C  0.68055422  0.16189704  0.49139259     0.00900
H1298       H  0.67009164  0.09046606  0.43753847     0.14700
H1299       H  0.66572115  0.10536069  0.00830618     0.14700
N1300       N  0.67699198  0.32724717  0.45753424    -0.01600
C1301       C  0.64941997  0.33017312  0.43250731     0.01000
C1302       C  0.61644687  0.33703801  0.45027806    -0.21900
C1303       C  0.62425510  0.33921008  0.48725166    -0.22100
C1304       C  0.66189291  0.33395220  0.49138901     0.00900
H1305       H  0.59045833  0.34438906  0.43753705     0.14700
H1306       H  0.60535278  0.34875738  0.00830545     0.14700
N1307       N  0.83753966  0.18728344  0.45753255    -0.01600
C1308       C  0.86510991  0.18436365  0.43250456     0.01000
C1309       C  0.89808491  0.17749846  0.45027371    -0.21900
C1310       C  0.89028007  0.17531989  0.48724716    -0.22100
C1311       C  0.85264224  0.18057472  0.49138641     0.00900
H1312       H  0.92407338  0.17015109  0.43753089     0.14700
H1313       H  0.90918498  0.16577261  0.00829854     0.14700
N1314       N  0.82723970  0.33754229  0.45752455    -0.01600
C1315       C  0.83015920  0.36511177  0.43249357     0.01000
C1316       C  0.83701447  0.39809129  0.45025964    -0.21900
C1317       C  0.83918682  0.39028968  0.48723457    -0.22100
C1318       C  0.83393864  0.35264943  0.49137780     0.00900
H1319       H  0.84435898  0.42408107  0.43751503     0.14700
H1320       H  0.84872723  0.40919921  0.00828547     0.14700
O1321       O  0.79250167  0.09399282  0.29679806    -0.69900
O1322       O  0.72201795  0.09400115  0.21772899    -0.70100
O1323       O  0.71772626  0.09399762  0.29250549    -0.69900
O1324       O  0.79679181  0.09399620  0.22202201    -0.70000
O1325       O  0.78128401  0.03759686  0.21086805    -0.69900
O1326       O  0.73322724  0.03759591  0.30365561    -0.69900
O1327       O  0.71086248  0.03760045  0.23323065    -0.69900
O1328       O  0.80364819  0.03759206  0.28129133    -0.70100
V1329       V  0.75725926  0.09435645  0.25726386     1.35200
V1330       V  0.75725533  0.03821636  0.25726159     1.35200
C1331       C  0.81008543  0.06411156  0.30255238     0.79400
C1332       C  0.70443293  0.06412173  0.21196880     0.79400
C1333       C  0.71196712  0.06411653  0.31008853     0.79300
C1334       C  0.80254697  0.06411606  0.20443672     0.79300
N1335       N  0.68728415  0.05700402  0.17698039    -0.01600
C1336       C  0.68436580  0.08203571  0.14941146     0.01000
C1337       C  0.67751406  0.06427004  0.11643128    -0.21900
C1338       C  0.67534278  0.02729453  0.12423178    -0.22100
C1339       C  0.68058797  0.02315050  0.16187228     0.00900
H1340       H  0.67017077  0.07701553  0.09044053     0.14700
H1341       H  0.66580465  0.00624357  0.10532075     0.14700
N1342       N  0.83753081  0.05699438  0.18728374    -0.01600
C1343       C  0.86510283  0.08202092  0.18436083     0.01000
C1344       C  0.89807679  0.06424891  0.17750126    -0.21900
C1345       C  0.89026884  0.02727508  0.17532939    -0.22100
C1346       C  0.85263054  0.02313872  0.18058204     0.00900
H1347       H  0.92406596  0.07698910  0.17015307     0.14700
H1348       H  0.90917257  0.00622071  0.16578630     0.14700
N1349       N  0.67698220  0.05699680  0.32724063    -0.01600
C1350       C  0.64941240  0.08202598  0.33016183     0.01000
C1351       C  0.61643712  0.06425759  0.33702473    -0.21900
C1352       C  0.62424152  0.02728323  0.33920025    -0.22100
C1353       C  0.66187930  0.02314272  0.33394624     0.00900
H1354       H  0.59044934  0.07700084  0.34437255     0.14700
H1355       H  0.60533613  0.00623169  0.34874545     0.14700
N1356       N  0.82724835  0.05699104  0.33753329    -0.01600
C1357       C  0.83018205  0.08201957  0.36510293     0.01000
C1358       C  0.83705856  0.06425066  0.39807674    -0.21900
C1359       C  0.83922981  0.02727640  0.39027076    -0.22100
C1360       C  0.83395958  0.02313671  0.35263356     0.00900
H1361       H  0.84441686  0.07699352  0.42406288     0.14700
H1362       H  0.84878232  0.00622404  0.40917335     0.14700
O1363       O  0.73323101  0.47695431  0.21086728    -0.69900
O1364       O  0.78128228  0.47694660  0.30366044    -0.70100
O1365       O  0.80365019  0.47694784  0.23323848    -0.69900
O1366       O  0.71086172  0.47695134  0.28128862    -0.70000
O1367       O  0.72200998  0.42055044  0.29679454    -0.69900
O1368       O  0.79249450  0.42054931  0.21772891    -0.69900
O1369       O  0.79678526  0.42054676  0.29250557    -0.69900
O1370       O  0.71771970  0.42055503  0.22201615    -0.70100
V1371       V  0.75725611  0.47633013  0.25726385     1.35200
V1372       V  0.75725209  0.42019046  0.25726155     1.35200
C1373       C  0.71196866  0.45043616  0.20442987     0.79400
C1374       C  0.80254451  0.45042664  0.31009071     0.79400
C1375       C  0.81008207  0.45042846  0.21197555     0.79300
C1376       C  0.70442642  0.45043133  0.30254993     0.79300
N1377       N  0.67699094  0.45755892  0.18726234    -0.01600
C1378       C  0.64941930  0.43253326  0.18432519     0.01000
C1379       C  0.61645116  0.45030487  0.17743398    -0.21900
C1380       C  0.62426225  0.48727767  0.17525678    -0.22100
C1381       C  0.66189697  0.49141344  0.18053825     0.00900
H1382       H  0.59046668  0.43756392  0.17007041     0.14700
H1383       H  0.60536600  0.00833047  0.16569477     0.14700
N1384       N  0.82724076  0.45754973  0.17699338    -0.01600
C1385       C  0.83016712  0.43252462  0.14941946     0.01000
C1386       C  0.83704035  0.45029809  0.11644776    -0.21900
C1387       C  0.83921777  0.48727073  0.12425864    -0.22100
C1388       C  0.83395385  0.49140504  0.16189673     0.00900
H1389       H  0.84439412  0.43755804  0.09045827     0.14700
H1390       H  0.84876935  0.00832451  0.10535849     0.14700
N1391       N  0.68726790  0.45755157  0.33753235    -0.01600
C1392       C  0.68433862  0.43252362  0.36510389     0.01000
C1393       C  0.67746103  0.45029313  0.39807632    -0.21900
C1394       C  0.67528447  0.48726680  0.39026828    -0.22100
C1395       C  0.68055298  0.49140560  0.35263094     0.00900
H1396       H  0.67010472  0.43755019  0.42406347     0.14700
H1397       H  0.66573048  0.00831860  0.40916919     0.14700
N1398       N  0.83753155  0.45754687  0.32724043    -0.01600
C1399       C  0.86510206  0.43251822  0.33015977     0.01000
C1400       C  0.89807710  0.45028625  0.33702686    -0.21900
C1401       C  0.89027191  0.48726011  0.33920699    -0.22100
C1402       C  0.85263389  0.49140013  0.33395125     0.00900
H1403       H  0.92406552  0.43754250  0.34437428     0.14700
H1404       H  0.90917702  0.00831099  0.34875538     0.14700
C1405       C  0.89378077  0.35966512  0.17325458     0.82100
N1406       N  0.88833164  0.33645815  0.14434023    -0.76200
C1407       C  0.85964857  0.34127472  0.12072985     0.84600
N1408       N  0.83643670  0.37018370  0.12618382    -0.76100
C1409       C  0.84125273  0.39379288  0.15486877     0.84700
N1410       N  0.87016670  0.38834400  0.17807616    -0.77800
O1411       O  0.59397597  0.29681334  0.29249702    -0.69900
O1412       O  0.59398528  0.21774879  0.22200737    -0.70100
O1413       O  0.59398102  0.29252670  0.21771899    -0.69900
O1414       O  0.59398095  0.22203590  0.29678374    -0.70000
O1415       O  0.53758377  0.21088170  0.28127465    -0.69900
O1416       O  0.53758197  0.30367406  0.23322014    -0.69900
O1417       O  0.53758680  0.23325020  0.21085125    -0.69900
O1418       O  0.53757826  0.28130363  0.30364222    -0.70100
V1419       V  0.59434035  0.25728139  0.25725166     1.35200
V1420       V  0.53820278  0.25727754  0.25724676     1.35200
C1421       C  0.56409596  0.30256547  0.31008094     0.79400
C1422       C  0.56410690  0.21198900  0.20442139     0.79400
C1423       C  0.56410110  0.31010995  0.21196041     0.79300
C1424       C  0.56410243  0.20444925  0.30253822     0.79300
N1425       N  0.55698882  0.17700104  0.18727138    -0.01600
C1426       C  0.58201824  0.14943132  0.18435091     0.01000
C1427       C  0.56425204  0.11645258  0.17749248    -0.21900
C1428       C  0.52727853  0.12425509  0.17531957    -0.22100
C1429       C  0.52313646  0.16189491  0.18057052     0.00900
H1430       H  0.57699527  0.09046382  0.17014694     0.14700
H1431       H  0.50622771  0.10534625  0.16577791     0.14700
N1432       N  0.55698147  0.32726646  0.17697568    -0.01600
C1433       C  0.58200932  0.33019250  0.14940584     0.01000
C1434       C  0.56424185  0.33706233  0.11643015    -0.21900
C1435       C  0.52726920  0.33923663  0.12423419    -0.22100
C1436       C  0.52312882  0.33397497  0.16187246     0.00900
H1437       H  0.57698493  0.34441428  0.09044228     0.14700
H1438       H  0.50621867  0.34878494  0.10532899     0.14700
N1439       N  0.55698252  0.18729315  0.33752258    -0.01600
C1440       C  0.58200928  0.18436895  0.36509515     0.01000
C1441       C  0.56423995  0.17750382  0.39806990    -0.21900
C1442       C  0.52726766  0.17532962  0.39026213    -0.22100
C1443       C  0.52312950  0.18058692  0.35262303     0.00900
H1444       H  0.57698148  0.17015398  0.42405994     0.14700
H1445       H  0.50621555  0.16578333  0.40916619     0.14700
N1446       N  0.55697496  0.33754521  0.32724599    -0.01600
C1447       C  0.58200140  0.36511647  0.33018023     0.01000
C1448       C  0.56423281  0.39808813  0.33706387    -0.21900
C1449       C  0.52726110  0.39027980  0.33923911    -0.22100
C1450       C  0.52312256  0.35264299  0.33396409     0.00900
H1451       H  0.57697546  0.42407490  0.34442421     0.14700
H1452       H  0.50621030  0.40917962  0.34879592     0.14700
O1453       O  0.97694428  0.21088392  0.23322590    -0.69900
O1454       O  0.97693493  0.30367604  0.28127890    -0.70100
O1455       O  0.97693848  0.23325232  0.30364771    -0.69900
O1456       O  0.97694042  0.28130642  0.21085592    -0.70000
O1457       O  0.92054137  0.29680909  0.22200180    -0.69900
O1458       O  0.92054142  0.21774384  0.29249252    -0.69900
O1459       O  0.92053692  0.29252082  0.29677932    -0.69900
O1460       O  0.92054610  0.22203045  0.21771567    -0.70100
V1461       V  0.97631947  0.25727988  0.25725207     1.35200
V1462       V  0.92018192  0.25727622  0.25724704     1.35200
C1463       C  0.95042623  0.20444598  0.21196372     0.79400
C1464       C  0.95041522  0.31010636  0.30253967     0.79400
C1465       C  0.95042000  0.21198930  0.31007996     0.79300
C1466       C  0.95042107  0.30256677  0.20441918     0.79300
N1467       N  0.95754667  0.18728182  0.17698376    -0.01600
C1468       C  0.93251937  0.18434835  0.14941281     0.01000
C1469       C  0.95028718  0.17746761  0.11644079    -0.21900
C1470       C  0.98725931  0.17529326  0.12424865    -0.22100
C1471       C  0.99139891  0.18056603  0.16188539     0.00900
H1472       H  0.93754414  0.17010868  0.09045392     0.14700
H1473       H  0.50831045  0.16573818  0.10534797     0.14700
N1474       N  0.95754007  0.33755104  0.18726148    -0.01600
C1475       C  0.93251160  0.36512128  0.18433487     0.01000
C1476       C  0.95027788  0.39809640  0.17746088    -0.21900
C1477       C  0.98725031  0.39029166  0.17528433    -0.22100
C1478       C  0.99139171  0.35265349  0.18054896     0.00900
H1479       H  0.93753349  0.42408425  0.17010740     0.14700
H1480       H  0.50829954  0.40919565  0.16573308     0.14700
N1481       N  0.95754071  0.17700524  0.32723735    -0.01600
C1482       C  0.93251507  0.14943244  0.33016392     0.01000
C1483       C  0.95028605  0.11645810  0.33703156    -0.21900
C1484       C  0.98725821  0.12426667  0.33920475    -0.22100
C1485       C  0.99139458  0.16190572  0.33394432     0.00900
H1486       H  0.93754602  0.09046857  0.34438331     0.14700
H1487       H  0.50831145  0.10536379  0.34875241     0.14700
N1488       N  0.95753385  0.32725570  0.33752767    -0.01600
C1489       C  0.93250512  0.33017456  0.36509740     0.01000
C1490       C  0.95027211  0.33703144  0.39807590    -0.21900
C1491       C  0.98724534  0.33920504  0.39027388    -0.22100
C1492       C  0.99138647  0.33395600  0.35263399     0.00900
H1493       H  0.93752878  0.34437605  0.42406602     0.14700
H1494       H  0.50829577  0.34874644  0.40918236     0.14700
C1495       C  0.65487243  0.17328939  0.12074053     0.82100
N1496       N  0.62619141  0.17810007  0.14435275    -0.76200
C1497       C  0.62074659  0.15488668  0.17326302     0.84600
N1498       N  0.64436134  0.12620657  0.17807675    -0.76100
C1499       C  0.67327317  0.12076433  0.15486709     0.84700
N1500       N  0.67808609  0.14438061  0.12618792    -0.77800
C1501       C  0.89377607  0.34126262  0.85964236     0.82100
N1502       N  0.88832985  0.37017447  0.83643083    -0.76200
C1503       C  0.85964830  0.39378659  0.84124247     0.84600
N1504       N  0.83643520  0.38833734  0.87015034    -0.76100
C1505       C  0.84124961  0.35965674  0.89376504     0.84700
N1506       N  0.87016204  0.33644725  0.88832185    -0.77800
C1507       C  0.67326851  0.35965808  0.62073555     0.82100
N1508       N  0.67808514  0.38834273  0.64434481    -0.76200
C1509       C  0.65487252  0.39379893  0.67325182     0.84600
N1510       N  0.62618871  0.37018989  0.67806747    -0.76100
C1511       C  0.62073972  0.34127472  0.65486130     0.84700
N1512       N  0.64435374  0.33645202  0.62618321    -0.77800
C1513       C  0.89378522  0.15488337  0.84125018     0.82100
N1514       N  0.88833687  0.17809472  0.87016106    -0.76200
C1515       C  0.85965658  0.17327844  0.89377356     0.84600
N1516       N  0.83644798  0.14436542  0.88832604    -0.76100
C1517       C  0.84126432  0.12075119  0.85964625     0.84700
N1518       N  0.87017472  0.12619966  0.83643607    -0.77800
C1519       C  0.62073837  0.17328207  0.85964428     0.82100
N1520       N  0.64434833  0.17809452  0.88832887    -0.76200
C1521       C  0.67325703  0.15488173  0.89377938     0.84600
N1522       N  0.67807313  0.12620141  0.87016550    -0.76100
C1523       C  0.65486617  0.12075676  0.84125016     0.84700
N1524       N  0.62618692  0.14437140  0.83643259    -0.77800
C1525       C  0.65486963  0.34126258  0.89377702     0.82100
N1526       N  0.67807675  0.37017707  0.88832939    -0.76200
C1527       C  0.67325684  0.39379175  0.85964921     0.84600
N1528       N  0.64434338  0.38834384  0.83644133    -0.76100
C1529       C  0.62073304  0.35966083  0.84125743     0.84700
N1530       N  0.62618648  0.33644735  0.87016631    -0.77800
C1531       C  0.84126523  0.15487576  0.62073650     0.82100
N1532       N  0.83644646  0.12619664  0.64435237    -0.76200
C1533       C  0.85965351  0.12075107  0.67326777     0.84600
N1534       N  0.88833608  0.14436237  0.67808231    -0.76100
C1535       C  0.89378811  0.17327047  0.65486768     0.84700
N1536       N  0.87017744  0.17808483  0.62618422    -0.77800
O1537       O  0.79680284  0.29250930  0.59397208    -0.69900
O1538       O  0.71773829  0.22202108  0.59398119    -0.70100
O1539       O  0.79251344  0.21773052  0.59397675    -0.69900
O1540       O  0.72202832  0.29679785  0.59397812    -0.70000
O1541       O  0.71087134  0.28128916  0.53757981    -0.69900
O1542       O  0.80365932  0.23323526  0.53757598    -0.69900
O1543       O  0.73323868  0.21086557  0.53758167    -0.69900
O1544       O  0.78129102  0.30365786  0.53757280    -0.70100
V1545       V  0.75727108  0.25726441  0.59433678     1.35200
V1546       V  0.75726523  0.25726180  0.53819749     1.35200
C1547       C  0.80255350  0.31009516  0.56409114     0.79400
C1548       C  0.71197720  0.20443645  0.56410156     0.79400
C1549       C  0.81009570  0.21197416  0.56409602     0.79300
C1550       C  0.70444000  0.30255191  0.56409928     0.79300
N1551       N  0.67698859  0.18729069  0.55698131    -0.01600
C1552       C  0.64941843  0.18437614  0.58200975     0.01000
C1553       C  0.61644149  0.17751715  0.56424159    -0.21900
C1554       C  0.62424542  0.17533715  0.52726806    -0.22100
C1555       C  0.66188413  0.18058487  0.52312799     0.00900
H1556       H  0.59045233  0.17017453  0.57698488     0.14700
H1557       H  0.60533751  0.16579322  0.50621654     0.14700
N1558       N  0.68728104  0.33753496  0.55697876    -0.01600
C1559       C  0.68435506  0.36510796  0.58200480     0.01000
C1560       C  0.67748535  0.39808161  0.56423264    -0.21900
C1561       C  0.67531007  0.39027284  0.52725977    -0.22100
C1562       C  0.68057154  0.35263407  0.52312382     0.00900
H1563       H  0.67013287  0.42407145  0.57697328     0.14700
H1564       H  0.66576067  0.40917541  0.50620587     0.14700
N1565       N  0.82725389  0.17699091  0.55697632    -0.01600
C1566       C  0.83018345  0.14941983  0.58200482     0.01000
C1567       C  0.83706070  0.11644648  0.56423647    -0.21900
C1568       C  0.83923670  0.12425364  0.52726301    -0.22100
C1569       C  0.83396818  0.16189134  0.52312301     0.00900
H1570       H  0.84441715  0.09045897  0.57698033     0.18900
H1571       H  0.84879029  0.10535155  0.50621191     0.14700
N1572       N  0.83753121  0.32726179  0.55696950    -0.01600
C1573       C  0.86510209  0.33019858  0.58199648     0.01000
C1574       C  0.89807127  0.33708448  0.56422656    -0.21900
C1575       C  0.89026188  0.33925869  0.52725350    -0.22100
C1576       C  0.85262686  0.33398092  0.52311559     0.00900
H1577       H  0.92405682  0.34444675  0.57696895     0.14700
H1578       H  0.90915944  0.34881670  0.50620140     0.14700
O1579       O  0.71087360  0.23323638  0.97693692    -0.69900
O1580       O  0.80366020  0.28129300  0.97692791    -0.70100
O1581       O  0.73323871  0.30365907  0.97693231    -0.69900
O1582       O  0.78129402  0.21086837  0.97693237    -0.70000
O1583       O  0.79679387  0.22201866  0.92053149    -0.69900
O1584       O  0.71772878  0.29250555  0.92053357    -0.69900
O1585       O  0.79250271  0.29679592  0.92052800    -0.69900
O1586       O  0.72201835  0.21772836  0.92053695    -0.70100
V1587       V  0.75726683  0.25726403  0.97631240     1.35200
V1588       V  0.75726099  0.25726187  0.92017293     1.35200
C1589       C  0.70443533  0.21197510  0.95041801     0.79400
C1590       C  0.81008919  0.30255491  0.95040695     0.79400
C1591       C  0.71197506  0.31009153  0.95041332     0.79300
C1592       C  0.80255387  0.20443525  0.95041231     0.79300
N1593       N  0.68727142  0.17699501  0.95753897    -0.01600
C1594       C  0.68433619  0.14942437  0.93251164     0.01000
C1595       C  0.67745259  0.11645243  0.95028109    -0.21900
C1596       C  0.67527830  0.12426059  0.98725433    -0.22100
C1597       C  0.68055410  0.16189734  0.99139271     0.00900
H1598       H  0.67009134  0.09046645  0.93753839     0.14700
H1599       H  0.66572135  0.10536043  0.50830623     0.14700
N1600       N  0.67699225  0.32724767  0.95753446    -0.01600
C1601       C  0.64942023  0.33017369  0.93250753     0.01000
C1602       C  0.61644721  0.33703882  0.95027835    -0.21900
C1603       C  0.62425561  0.33921103  0.98725178    -0.22100
C1604       C  0.66189330  0.33395290  0.99138920     0.00900
H1605       H  0.59045853  0.34438994  0.93753724     0.14700
H1606       H  0.60535269  0.34875595  0.50830474     0.14700
N1607       N  0.83753947  0.18728333  0.95753268    -0.01600
C1608       C  0.86510974  0.18436351  0.93250465     0.01000
C1609       C  0.89808470  0.17749810  0.95027374    -0.21900
C1610       C  0.89027991  0.17531952  0.98724722    -0.22100
C1611       C  0.85264211  0.18057453  0.99138650     0.00900
H1612       H  0.92407310  0.17015065  0.93753089     0.14700
H1613       H  0.90918528  0.16577302  0.50829868     0.14700
N1614       N  0.82723976  0.33754244  0.95752468    -0.01600
C1615       C  0.83015925  0.36511190  0.93249377     0.01000
C1616       C  0.83701457  0.39809136  0.95025982    -0.21900
C1617       C  0.83918707  0.39028980  0.98723482    -0.22100
C1618       C  0.83393881  0.35264947  0.99137799     0.00900
H1619       H  0.84435913  0.42408132  0.93751519     0.14700
H1620       H  0.84872709  0.40919959  0.50828570     0.14700
O1621       O  0.79250182  0.09399302  0.79679782    -0.69900
O1622       O  0.72201808  0.09400141  0.71772880    -0.70100
O1623       O  0.71772653  0.09399802  0.79250532    -0.69900
O1624       O  0.79679193  0.09399637  0.72202172    -0.70000
O1625       O  0.78128417  0.03759700  0.71086784    -0.69900
O1626       O  0.73322734  0.03759623  0.80365538    -0.69900
O1627       O  0.71086259  0.03760070  0.73323041    -0.69900
O1628       O  0.80364828  0.03759226  0.78129115    -0.70100
V1629       V  0.75725944  0.09435668  0.75726362     1.35200
V1630       V  0.75725544  0.03821658  0.75726137     1.35200
C1631       C  0.81008546  0.06411181  0.80255223     0.79400
C1632       C  0.70443308  0.06412202  0.71196862     0.79400
C1633       C  0.71196737  0.06411684  0.81008841     0.79300
C1634       C  0.80254714  0.06411623  0.70443642     0.79300
N1635       N  0.68728420  0.05700437  0.67698018    -0.01600
C1636       C  0.68436586  0.08203612  0.64941137     0.01000
C1637       C  0.67751437  0.06427051  0.61643108    -0.21900
C1638       C  0.67534328  0.02729494  0.62423149    -0.22100
C1639       C  0.68058826  0.02315086  0.66187201     0.00900
H1640       H  0.67017115  0.07701598  0.59044047     0.14700
H1641       H  0.66580535  0.00624403  0.60532041     0.14700
N1642       N  0.83753091  0.05699455  0.68728348    -0.01600
C1643       C  0.86510296  0.08202117  0.68436059     0.01000
C1644       C  0.89807680  0.06424920  0.67750107    -0.21900
C1645       C  0.89026914  0.02727533  0.67532914    -0.22100
C1646       C  0.85263074  0.02313895  0.68058178     0.00900
H1647       H  0.92406662  0.07698980  0.67015269     0.14700
H1648       H  0.90917251  0.00622149  0.66578628     0.14700
N1649       N  0.67698246  0.05699728  0.82724050    -0.01600
C1650       C  0.64941264  0.08202640  0.83016178     0.01000
C1651       C  0.61643747  0.06425798  0.83702455    -0.21900
C1652       C  0.62424172  0.02728367  0.83920001    -0.22100
C1653       C  0.66187953  0.02314312  0.83394603     0.00900
H1654       H  0.59044906  0.07700158  0.84437256     0.14700
H1655       H  0.60533636  0.00623216  0.84874516     0.14700
N1656       N  0.82724816  0.05699117  0.83753326    -0.01600
C1657       C  0.83018164  0.08201976  0.86510294     0.01000
C1658       C  0.83705778  0.06425079  0.89807674    -0.21900
C1659       C  0.83922907  0.02727658  0.89027087    -0.22100
C1660       C  0.83395920  0.02313691  0.85263360     0.00900
H1661       H  0.84441595  0.07699389  0.92406348     0.14700
H1662       H  0.84878137  0.00622418  0.90917355     0.14700
O1663       O  0.73323110  0.47695448  0.71086705    -0.69900
O1664       O  0.78128237  0.47694671  0.80366008    -0.70100
O1665       O  0.80365031  0.47694799  0.73323821    -0.69900
O1666       O  0.71086186  0.47695153  0.78128834    -0.70000
O1667       O  0.72201003  0.42055060  0.79679422    -0.69900
O1668       O  0.79249455  0.42054948  0.71772860    -0.69900
O1669       O  0.79678528  0.42054683  0.79250531    -0.69900
O1670       O  0.71771973  0.42055520  0.72201586    -0.70100
V1671       V  0.75725622  0.47633028  0.75726356     1.35200
V1672       V  0.75725214  0.42019060  0.75726124     1.35200
C1673       C  0.71196873  0.45043639  0.70442963     0.79400
C1674       C  0.80254450  0.45042671  0.81009047     0.79400
C1675       C  0.81008215  0.45042858  0.71197529     0.79300
C1676       C  0.70442647  0.45043148  0.80254963     0.79300
N1677       N  0.67699106  0.45755911  0.68726204    -0.01600
C1678       C  0.64941940  0.43253346  0.68432479     0.01000
C1679       C  0.61645148  0.45030518  0.67743341    -0.21900
C1680       C  0.62426253  0.48727780  0.67525607    -0.22100
C1681       C  0.66189716  0.49141367  0.68053773     0.00900
H1682       H  0.59046612  0.43756375  0.67006955     0.14700
H1683       H  0.60536624  0.00833081  0.66569421     0.14700
N1684       N  0.82724093  0.45754984  0.67699315    -0.01600
C1685       C  0.83016727  0.43252468  0.64941926     0.01000
C1686       C  0.83704059  0.45029812  0.61644754    -0.21900
C1687       C  0.83921803  0.48727075  0.62425843    -0.22100
C1688       C  0.83395401  0.49140510  0.66189649     0.00900
H1689       H  0.84439432  0.43755808  0.59045817     0.14700
H1690       H  0.84876980  0.00832480  0.60535803     0.14700
N1691       N  0.68726786  0.45755173  0.83753196    -0.01600
C1692       C  0.68433859  0.43252380  0.86510358     0.01000
C1693       C  0.67746114  0.45029338  0.89807591    -0.21900
C1694       C  0.67528473  0.48726696  0.89026791    -0.22100
C1695       C  0.68055307  0.49140579  0.85263060     0.00900
H1696       H  0.67010478  0.43755026  0.92406342     0.14700
H1697       H  0.66573102  0.00831893  0.90916883     0.14700
N1698       N  0.83753137  0.45754695  0.82724051    -0.01600
C1699       C  0.86510190  0.43251837  0.83016002     0.01000
C1700       C  0.89807683  0.45028647  0.83702730    -0.21900
C1701       C  0.89027154  0.48726017  0.83920752    -0.22100
C1702       C  0.85263363  0.49140024  0.83395152     0.00900
H1703       H  0.92406555  0.43754252  0.84437496     0.14700
H1704       H  0.90917678  0.00831135  0.84875617     0.14700
C1705       C  0.89378072  0.35966499  0.67325433     0.82100
N1706       N  0.88833150  0.33645801  0.64434003    -0.76200
C1707       C  0.85964844  0.34127467  0.62072963     0.84600
N1708       N  0.83643669  0.37018376  0.62618358    -0.76100
C1709       C  0.84125276  0.39379290  0.65486854     0.84700
N1710       N  0.87016671  0.38834394  0.67807595    -0.77800
O1711       O  0.59397570  0.29681349  0.79249706    -0.69900
O1712       O  0.59398509  0.21774891  0.72200740    -0.70100
O1713       O  0.59398079  0.29252687  0.71771904    -0.69900
O1714       O  0.59398063  0.22203606  0.79678380    -0.70000
O1715       O  0.53758355  0.21088173  0.78127444    -0.69900
O1716       O  0.53758175  0.30367424  0.73322022    -0.69900
O1717       O  0.53758667  0.23325046  0.71085111    -0.69900
O1718       O  0.53757802  0.28130362  0.80364228    -0.70100
V1719       V  0.59434012  0.25728154  0.75725169     1.35200
V1720       V  0.53820257  0.25727766  0.75724672     1.35200
C1721       C  0.56409574  0.30256552  0.81008104     0.79400
C1722       C  0.56410672  0.21198924  0.70442127     0.79400
C1723       C  0.56410095  0.31011013  0.71196047     0.79300
C1724       C  0.56410220  0.20444932  0.80253813     0.79300
N1725       N  0.55698862  0.17700134  0.68727117    -0.01600
C1726       C  0.58201797  0.14943152  0.68435064     0.01000
C1727       C  0.56425159  0.11645308  0.67749202    -0.21900
C1728       C  0.52727820  0.12425554  0.67531897    -0.22100
C1729       C  0.52313621  0.16189536  0.68057006     0.00900
H1730       H  0.57699529  0.09046331  0.67014599     0.14700
H1731       H  0.50622724  0.10534680  0.66577705     0.14700
N1732       N  0.55698124  0.32726665  0.67697575    -0.01600
C1733       C  0.58200915  0.33019270  0.64940589     0.01000
C1734       C  0.56424161  0.33706250  0.61643021    -0.21900
C1735       C  0.52726900  0.33923682  0.62423428    -0.22100
C1736       C  0.52312863  0.33397518  0.66187252     0.00900
H1737       H  0.57698471  0.34441446  0.59044233     0.14700
H1738       H  0.50621830  0.34878526  0.60532894     0.14700
N1739       N  0.55698216  0.18729304  0.83752235    -0.01600
C1740       C  0.58200887  0.18436864  0.86509499     0.01000
C1741       C  0.56423940  0.17750315  0.89806958    -0.21900
C1742       C  0.52726718  0.17532895  0.89026166    -0.22100
C1743       C  0.52312915  0.18058659  0.85262264     0.00900
H1744       H  0.57698093  0.17015311  0.92405975     0.14700
H1745       H  0.50621486  0.16578240  0.90916567     0.14700
N1746       N  0.55697471  0.33754513  0.82724630    -0.01600
C1747       C  0.58200116  0.36511644  0.83018070     0.01000
C1748       C  0.56423252  0.39808804  0.83706450    -0.21900
C1749       C  0.52726082  0.39027965  0.83923970    -0.22100
C1750       C  0.52312233  0.35264285  0.83396445     0.00900
H1751       H  0.57697516  0.42407479  0.84442486     0.14700
H1752       H  0.50621001  0.40917942  0.84879655     0.14700
O1753       O  0.97694419  0.21088378  0.73322588    -0.69900
O1754       O  0.97693470  0.30367594  0.78127878    -0.70100
O1755       O  0.97693833  0.23325220  0.80364764    -0.69900
O1756       O  0.97694022  0.28130621  0.71085588    -0.70000
O1757       O  0.92054116  0.29680895  0.72200168    -0.69900
O1758       O  0.92054125  0.21774377  0.79249248    -0.69900
O1759       O  0.92053667  0.29252081  0.79677923    -0.69900
O1760       O  0.92054600  0.22203033  0.71771567    -0.70100
V1761       V  0.97631928  0.25727974  0.75725202     1.35200
V1762       V  0.92018172  0.25727613  0.75724698     1.35200
C1763       C  0.95042610  0.20444589  0.71196363     0.79400
C1764       C  0.95041500  0.31010632  0.80253952     0.79400
C1765       C  0.95041979  0.21198918  0.81007990     0.79300
C1766       C  0.95042097  0.30256659  0.70441902     0.79300
N1767       N  0.95754661  0.18728192  0.67698363    -0.01600
C1768       C  0.93251931  0.18434860  0.64941258     0.01000
C1769       C  0.95028717  0.17746803  0.61644054    -0.21900
C1770       C  0.98725928  0.17529363  0.62424844    -0.22100
C1771       C  0.99139882  0.18056611  0.66188522     0.00900
H1772       H  0.93754414  0.17010920  0.59045359     0.14700
H1773       H  0.50831016  0.16573936  0.60534756     0.14700
N1774       N  0.95753995  0.33755079  0.68726129    -0.01600
C1775       C  0.93251159  0.36512111  0.68433464     0.01000
C1776       C  0.95027790  0.39809622  0.67746088    -0.21900
C1777       C  0.98725031  0.39029150  0.67528443    -0.22100
C1778       C  0.99139171  0.35265332  0.68054896     0.00900
H1779       H  0.93753347  0.42408428  0.67010735     0.14700
H1780       H  0.50829922  0.40919580  0.66573327     0.14700
N1781       N  0.95754049  0.17700518  0.82723736    -0.01600
C1782       C  0.93251474  0.14943240  0.83016398     0.01000
C1783       C  0.95028569  0.11645806  0.83703154    -0.21900
C1784       C  0.98725794  0.12426645  0.83920457    -0.22100
C1785       C  0.99139431  0.16190555  0.83394418     0.00900
H1786       H  0.93754561  0.09046848  0.84438330     0.14700
H1787       H  0.50831119  0.10536358  0.84875126     0.14700
N1788       N  0.95753364  0.32725565  0.83752756    -0.01600
C1789       C  0.93250493  0.33017450  0.86509721     0.01000
C1790       C  0.95027186  0.33703136  0.89807596    -0.21900
C1791       C  0.98724506  0.33920483  0.89027363    -0.22100
C1792       C  0.99138634  0.33395586  0.85263388     0.00900
H1793       H  0.93752905  0.34437561  0.92406492     0.14700
H1794       H  0.50829594  0.34874582  0.90918299     0.14700
C1795       C  0.65487223  0.17328972  0.62074033     0.82100
N1796       N  0.62619120  0.17810036  0.64435258    -0.76200
C1797       C  0.62074634  0.15488696  0.67326278     0.84600
N1798       N  0.64436112  0.12620681  0.67807656    -0.76100
C1799       C  0.67327307  0.12076472  0.65486696     0.84700
N1800       N  0.67808600  0.14438099  0.62618787    -0.77800
C1801       C  0.89377613  0.84126251  0.35964250     0.82100
N1802       N  0.88832992  0.87017427  0.33643088    -0.76200
C1803       C  0.85964834  0.89378638  0.34124245     0.84600
N1804       N  0.83643520  0.88833712  0.37015028    -0.76100
C1805       C  0.84124955  0.85965655  0.39376501     0.84700
N1806       N  0.87016211  0.83644714  0.38832196    -0.77800
C1807       C  0.67326881  0.85965800  0.12073575     0.82100
N1808       N  0.67808528  0.88834266  0.14434504    -0.76200
C1809       C  0.65487250  0.89379874  0.17325196     0.84600
N1810       N  0.62618876  0.87018966  0.17806743    -0.76100
C1811       C  0.62073993  0.84127450  0.15486124     0.84700
N1812       N  0.64435410  0.83645188  0.12618322    -0.77800
C1813       C  0.89378556  0.65488331  0.34125016     0.82100
N1814       N  0.88833710  0.67809463  0.37016106    -0.76200
C1815       C  0.85965687  0.67327833  0.39377352     0.84600
N1816       N  0.83644820  0.64436530  0.38832596    -0.76100
C1817       C  0.84126464  0.62075108  0.35964617     0.84700
N1818       N  0.87017507  0.62619953  0.33643606    -0.77800
C1819       C  0.62073839  0.67328191  0.35964430     0.82100
N1820       N  0.64434842  0.67809426  0.38832883    -0.76200
C1821       C  0.67325696  0.65488131  0.39377931     0.84600
N1822       N  0.67807293  0.62620097  0.37016545    -0.76100
C1823       C  0.65486585  0.62075637  0.34125019     0.84700
N1824       N  0.62618665  0.64437108  0.33643271    -0.77800
C1825       C  0.65486967  0.84126224  0.39377685     0.82100
N1826       N  0.67807682  0.87017669  0.38832936    -0.76200
C1827       C  0.67325701  0.89379146  0.35964925     0.84600
N1828       N  0.64434359  0.88834362  0.33644125    -0.76100
C1829       C  0.62073323  0.85966067  0.34125724     0.84700
N1830       N  0.62618653  0.83644710  0.37016606    -0.77800
C1831       C  0.84126537  0.65487542  0.12073677     0.82100
N1832       N  0.83644656  0.62619639  0.14435267    -0.76200
C1833       C  0.85965358  0.62075084  0.17326812     0.84600
N1834       N  0.88833616  0.64436218  0.17808264    -0.76100
C1835       C  0.89378818  0.67327022  0.15486801     0.84700
N1836       N  0.87017757  0.67808454  0.12618446    -0.77800
O1837       O  0.79680310  0.79250907  0.09397232    -0.69900
O1838       O  0.71773848  0.72202088  0.09398135    -0.70100
O1839       O  0.79251363  0.71773025  0.09397697    -0.69900
O1840       O  0.72202856  0.79679759  0.09397828    -0.70000
O1841       O  0.71087153  0.78128907  0.03757992    -0.69900
O1842       O  0.80365945  0.73323500  0.03757619    -0.69900
O1843       O  0.73323873  0.71086547  0.03758179    -0.69900
O1844       O  0.78129129  0.80365760  0.03757301    -0.70100
V1845       V  0.75727130  0.75726417  0.09433698     1.35200
V1846       V  0.75726540  0.75726162  0.03819767     1.35200
C1847       C  0.80255373  0.81009493  0.06409135     0.79400
C1848       C  0.71197730  0.70443632  0.06410170     0.79400
C1849       C  0.81009583  0.71197385  0.06409623     0.79300
C1850       C  0.70444021  0.80255181  0.06409948     0.79300
N1851       N  0.67698866  0.68729055  0.05698149    -0.01600
C1852       C  0.64941855  0.68437586  0.08200996     0.01000
C1853       C  0.61644161  0.67751705  0.06424188    -0.21900
C1854       C  0.62424531  0.67533731  0.02726828    -0.22100
C1855       C  0.66188409  0.68058498  0.02312819     0.00900
H1856       H  0.59045218  0.67017436  0.07698534     0.14700
H1857       H  0.60533764  0.66579376  0.00621710     0.14700
N1858       N  0.68728141  0.83753490  0.05697900    -0.01600
C1859       C  0.68435561  0.86510793  0.08200508     0.01000
C1860       C  0.67748644  0.89808177  0.06423301    -0.21900
C1861       C  0.67531127  0.89027305  0.02726009    -0.22100
C1862       C  0.68057226  0.85263425  0.02312408     0.00900
H1863       H  0.67013433  0.92407138  0.07697352     0.14700
H1864       H  0.66576216  0.90917589  0.00620609     0.14700
N1865       N  0.82725394  0.67699058  0.05697655    -0.01600
C1866       C  0.83018356  0.64941950  0.08200505     0.01000
C1867       C  0.83706078  0.61644606  0.06423672    -0.21900
C1868       C  0.83923663  0.62425331  0.02726326    -0.22100
C1869       C  0.83396817  0.66189097  0.02312320     0.00900
H1870       H  0.84441722  0.59045891  0.07698039     0.18900
H1871       H  0.84879027  0.60535095  0.00621191     0.14700
N1872       N  0.83753147  0.82726155  0.05696969    -0.01600
C1873       C  0.86510224  0.83019847  0.08199667     0.01000
C1874       C  0.89807158  0.83708440  0.06422687    -0.21900
C1875       C  0.89026211  0.83925850  0.02725371    -0.22100
C1876       C  0.85262711  0.83398063  0.02311576     0.00900
H1877       H  0.92405639  0.84444652  0.07696891     0.14700
H1878       H  0.90915963  0.84881654  0.00620173     0.14700
O1879       O  0.71087363  0.73323593  0.47693666    -0.69900
O1880       O  0.80366015  0.78129264  0.47692781    -0.70100
O1881       O  0.73323860  0.80365862  0.47693212    -0.69900
O1882       O  0.78129411  0.71086805  0.47693219    -0.70000
O1883       O  0.79679398  0.72201832  0.42053133    -0.69900
O1884       O  0.71772875  0.79250506  0.42053338    -0.69900
O1885       O  0.79250268  0.79679556  0.42052791    -0.69900
O1886       O  0.72201842  0.71772789  0.42053672    -0.70100
V1887       V  0.75726681  0.75726363  0.47631222     1.35200
V1888       V  0.75726102  0.75726147  0.42017276     1.35200
C1889       C  0.70443538  0.71197465  0.45041777     0.79400
C1890       C  0.81008915  0.80255459  0.45040681     0.79400
C1891       C  0.71197496  0.81009107  0.45041320     0.79300
C1892       C  0.80255396  0.70443499  0.45041221     0.79300
N1893       N  0.68727145  0.67699455  0.45753882    -0.01600
C1894       C  0.68433611  0.64942391  0.43251155     0.01000
C1895       C  0.67745240  0.61645201  0.45028104    -0.21900
C1896       C  0.67527812  0.62426022  0.48725427    -0.22100
C1897       C  0.68055403  0.66189698  0.49139258     0.00900
H1898       H  0.67009113  0.59046605  0.43753835     0.14700
H1899       H  0.66572120  0.60536095  0.00830580     0.14700
N1900       N  0.67699215  0.82724717  0.45753421    -0.01600
C1901       C  0.64942015  0.83017315  0.43250731     0.01000
C1902       C  0.61644704  0.83703809  0.45027807    -0.21900
C1903       C  0.62425533  0.83921015  0.48725165    -0.22100
C1904       C  0.66189310  0.83395218  0.49138900     0.00900
H1905       H  0.59045856  0.84438910  0.43753714     0.14700
H1906       H  0.60535321  0.84875701  0.00830516     0.14700
N1907       N  0.83753966  0.68728316  0.45753257    -0.01600
C1908       C  0.86510990  0.68436339  0.43250468     0.01000
C1909       C  0.89808497  0.67749799  0.45027383    -0.21900
C1910       C  0.89027987  0.67531935  0.48724720    -0.22100
C1911       C  0.85264217  0.68057425  0.49138649     0.00900
H1912       H  0.92407292  0.67015066  0.43753129     0.14700
H1913       H  0.90918524  0.66577250  0.00829880     0.14700
N1914       N  0.82723961  0.83754214  0.45752461    -0.01600
C1915       C  0.83015908  0.86511161  0.43249368     0.01000
C1916       C  0.83701433  0.89809112  0.45025972    -0.21900
C1917       C  0.83918665  0.89028956  0.48723470    -0.22100
C1918       C  0.83393850  0.85264927  0.49137790     0.00900
H1919       H  0.84435882  0.92408087  0.43751514     0.14700
H1920       H  0.84872754  0.90919934  0.00828601     0.14700
O1921       O  0.79250163  0.59399288  0.29679809    -0.69900
O1922       O  0.72201791  0.59400119  0.21772912    -0.70100
O1923       O  0.71772633  0.59399771  0.29250559    -0.69900
O1924       O  0.79679180  0.59399626  0.22202210    -0.70000
O1925       O  0.78128402  0.53759688  0.21086820    -0.69900
O1926       O  0.73322718  0.53759594  0.30365564    -0.69900
O1927       O  0.71086240  0.53760049  0.23323080    -0.69900
O1928       O  0.80364808  0.53759210  0.28129138    -0.70100
V1929       V  0.75725925  0.59435651  0.25726393     1.35200
V1930       V  0.75725526  0.53821641  0.25726167     1.35200
C1931       C  0.81008534  0.56411160  0.30255242     0.79400
C1932       C  0.70443294  0.56412185  0.21196890     0.79400
C1933       C  0.71196714  0.56411659  0.31008864     0.79300
C1934       C  0.80254702  0.56411612  0.20443682     0.79300
N1935       N  0.68728428  0.55700402  0.17698046    -0.01600
C1936       C  0.68436598  0.58203573  0.14941151     0.01000
C1937       C  0.67751416  0.56427008  0.11643120    -0.21900
C1938       C  0.67534290  0.52729454  0.12423199    -0.22100
C1939       C  0.68058803  0.52315054  0.16187240     0.00900
H1940       H  0.67017113  0.57701509  0.09044143     0.14700
H1941       H  0.66580460  0.50624325  0.10532066     0.14700
N1942       N  0.83753075  0.55699441  0.18728383    -0.01600
C1943       C  0.86510290  0.58202099  0.18436110     0.01000
C1944       C  0.89807670  0.56424891  0.17750178    -0.21900
C1945       C  0.89026899  0.52727505  0.17532971    -0.22100
C1946       C  0.85263055  0.52313880  0.18058225     0.00900
H1947       H  0.92406679  0.57698950  0.17015350     0.14700
H1948       H  0.90917219  0.50622132  0.16578696     0.14700
N1949       N  0.67698224  0.55699690  0.32724070    -0.01600
C1950       C  0.64941235  0.58202604  0.33016180     0.01000
C1951       C  0.61643721  0.56425758  0.33702474    -0.21900
C1952       C  0.62424155  0.52728329  0.33920049    -0.22100
C1953       C  0.66187935  0.52314283  0.33394650     0.00900
H1954       H  0.59044887  0.57700112  0.34437264     0.14700
H1955       H  0.60533624  0.50623183  0.34874573     0.14700
N1956       N  0.82724829  0.55699107  0.33753330    -0.01600
C1957       C  0.83018207  0.58201961  0.36510297     0.01000
C1958       C  0.83705869  0.56425066  0.39807660    -0.21900
C1959       C  0.83922996  0.52727648  0.39027077    -0.22100
C1960       C  0.83395965  0.52313678  0.35263356     0.00900
H1961       H  0.84441729  0.57699394  0.42406356     0.14700
H1962       H  0.84878252  0.50622409  0.40917330     0.14700
O1963       O  0.73323103  0.97695424  0.21086714    -0.69900
O1964       O  0.78128235  0.97694649  0.30366027    -0.70100
O1965       O  0.80365016  0.97694780  0.23323832    -0.69900
O1966       O  0.71086183  0.97695137  0.28128858    -0.70000
O1967       O  0.72200993  0.92055038  0.29679437    -0.69900
O1968       O  0.79249442  0.92054925  0.21772877    -0.69900
O1969       O  0.79678523  0.92054660  0.29250548    -0.69900
O1970       O  0.71771961  0.92055500  0.22201607    -0.70100
V1971       V  0.75725614  0.97633008  0.25726372     1.35200
V1972       V  0.75725203  0.92019039  0.25726142     1.35200
C1973       C  0.71196867  0.95043615  0.20442972     0.79400
C1974       C  0.80254445  0.95042655  0.31009061     0.79400
C1975       C  0.81008204  0.95042838  0.21197541     0.79300
C1976       C  0.70442642  0.95043131  0.30254982     0.79300
N1977       N  0.67699098  0.95755886  0.18726218    -0.01600
C1978       C  0.64941934  0.93253319  0.18432507     0.01000
C1979       C  0.61645134  0.95030484  0.17743390    -0.21900
C1980       C  0.62426234  0.98727742  0.17525657    -0.22100
C1981       C  0.66189696  0.99141340  0.18053803     0.00900
H1982       H  0.59046592  0.93756332  0.17007011     0.14700
H1983       H  0.60536641  0.50833011  0.16569532     0.14700
N1984       N  0.82724081  0.95754964  0.17699329    -0.01600
C1985       C  0.83016707  0.93252450  0.14941937     0.01000
C1986       C  0.83704021  0.95029791  0.11644755    -0.21900
C1987       C  0.83921762  0.98727065  0.12425847    -0.22100
C1988       C  0.83395377  0.99140495  0.16189659     0.00900
H1989       H  0.84439377  0.93755815  0.09045864     0.14700
H1990       H  0.84876961  0.50832482  0.10535853     0.14700
N1991       N  0.68726788  0.95755144  0.33753214    -0.01600
C1992       C  0.68433867  0.93252350  0.36510368     0.01000
C1993       C  0.67746093  0.95029294  0.39807616    -0.21900
C1994       C  0.67528435  0.98726654  0.39026795    -0.22100
C1995       C  0.68055284  0.99140549  0.35263075     0.00900
H1996       H  0.67010479  0.93755016  0.42406276     0.14700
H1997       H  0.66573087  0.50831828  0.40916895     0.14700
N1998       N  0.83753147  0.95754673  0.32724046    -0.01600
C1999       C  0.86510194  0.93251814  0.33015984     0.01000
C2000       C  0.89807692  0.95028620  0.33702687    -0.21900
C2001       C  0.89027170  0.98725986  0.33920697    -0.22100
C2002       C  0.85263379  0.99140007  0.33395127     0.00900
H2003       H  0.92406575  0.93754213  0.34437448     0.14700
H2004       H  0.90917650  0.50831044  0.34875497     0.14700
C2005       C  0.89378070  0.85966497  0.17325453     0.82100
N2006       N  0.88833152  0.83645795  0.14434023    -0.76200
C2007       C  0.85964852  0.84127455  0.12072982     0.84600
N2008       N  0.83643661  0.87018356  0.12618374    -0.76100
C2009       C  0.84125265  0.89379274  0.15486869     0.84700
N2010       N  0.87016662  0.88834387  0.17807606    -0.77800
O2011       O  0.59397589  0.79681338  0.29249682    -0.69900
O2012       O  0.59398533  0.71774880  0.22200718    -0.70100
O2013       O  0.59398095  0.79252672  0.21771882    -0.69900
O2014       O  0.59398080  0.72203595  0.29678359    -0.70000
O2015       O  0.53758367  0.71088165  0.28127439    -0.69900
O2016       O  0.53758189  0.80367410  0.23321994    -0.69900
O2017       O  0.53758685  0.73325019  0.21085103    -0.69900
O2018       O  0.53757819  0.78130358  0.30364203    -0.70100
V2019       V  0.59434028  0.75728141  0.25725149     1.35200
V2020       V  0.53820272  0.75727753  0.25724654     1.35200
C2021       C  0.56409589  0.80256547  0.31008076     0.79400
C2022       C  0.56410693  0.71198896  0.20442116     0.79400
C2023       C  0.56410108  0.81010998  0.21196021     0.79300
C2024       C  0.56410229  0.70444923  0.30253804     0.79300
N2025       N  0.55698880  0.67700099  0.18727123    -0.01600
C2026       C  0.58201821  0.64943115  0.18435089     0.01000
C2027       C  0.56425189  0.61645259  0.17749273    -0.21900
C2028       C  0.52727837  0.62425485  0.17531979    -0.22100
C2029       C  0.52313640  0.66189481  0.18057050     0.00900
H2030       H  0.57699557  0.59046279  0.17014695     0.14700
H2031       H  0.50622790  0.60534639  0.16577840     0.14700
N2032       N  0.55698149  0.82726650  0.17697551    -0.01600
C2033       C  0.58200943  0.83019250  0.14940568     0.01000
C2034       C  0.56424195  0.83706246  0.11643002    -0.21900
C2035       C  0.52726940  0.83923688  0.12423409    -0.22100
C2036       C  0.52312888  0.83397512  0.16187224     0.00900
H2037       H  0.57698517  0.84441439  0.09044207     0.14700
H2038       H  0.50621845  0.84878552  0.10532851     0.14700
N2039       N  0.55698234  0.68729318  0.33752237    -0.01600
C2040       C  0.58200902  0.68436896  0.36509500     0.01000
C2041       C  0.56423961  0.67750393  0.39806974    -0.21900
C2042       C  0.52726723  0.67532985  0.39026193    -0.22100
C2043       C  0.52312928  0.68058703  0.35262277     0.00900
H2044       H  0.57698093  0.67015413  0.42405966     0.14700
H2045       H  0.50621541  0.66578385  0.40916559     0.14700
N2046       N  0.55697492  0.83754511  0.32724593    -0.01600
C2047       C  0.58200136  0.86511636  0.33018042     0.01000
C2048       C  0.56423282  0.89808807  0.33706418    -0.21900
C2049       C  0.52726107  0.89027966  0.33923929    -0.22100
C2050       C  0.52312252  0.85264290  0.33396399     0.00900
H2051       H  0.57697525  0.92407443  0.34442445     0.14700
H2052       H  0.50621030  0.90917945  0.34879615     0.14700
O2053       O  0.97694440  0.71088395  0.23322588    -0.69900
O2054       O  0.97693485  0.80367606  0.28127891    -0.70100
O2055       O  0.97693860  0.73325233  0.30364771    -0.69900
O2056       O  0.97694036  0.78130636  0.21085591    -0.70000
O2057       O  0.92054132  0.79680902  0.22200187    -0.69900
O2058       O  0.92054158  0.71774372  0.29249246    -0.69900
O2059       O  0.92053685  0.79252072  0.29677932    -0.69900
O2060       O  0.92054620  0.72203045  0.21771566    -0.70100
V2061       V  0.97631952  0.75727988  0.25725207     1.35200
V2062       V  0.92018197  0.75727613  0.25724705     1.35200
C2063       C  0.95042637  0.70444598  0.21196371     0.79400
C2064       C  0.95041510  0.81010630  0.30253965     0.79400
C2065       C  0.95042010  0.71198921  0.31007994     0.79300
C2066       C  0.95042106  0.80256669  0.20441917     0.79300
N2067       N  0.95754671  0.68728180  0.17698378    -0.01600
C2068       C  0.93251944  0.68434824  0.14941281     0.01000
C2069       C  0.95028725  0.67746743  0.11644082    -0.21900
C2070       C  0.98725937  0.67529324  0.12424867    -0.22100
C2071       C  0.99139898  0.68056599  0.16188540     0.00900
H2072       H  0.93754421  0.67010842  0.09045390     0.14700
H2073       H  0.50831018  0.66573790  0.10534800     0.14700
N2074       N  0.95753996  0.83755091  0.18726141    -0.01600
C2075       C  0.93251155  0.86512115  0.18433484     0.01000
C2076       C  0.95027782  0.89809633  0.17746086    -0.21900
C2077       C  0.98725025  0.89029149  0.17528428    -0.22100
C2078       C  0.99139168  0.85265336  0.18054885     0.00900
H2079       H  0.93753359  0.92408383  0.17010742     0.14700
H2080       H  0.50830044  0.90919658  0.16573270     0.14700
N2081       N  0.95754084  0.67700525  0.32723735    -0.01600
C2082       C  0.93251509  0.64943242  0.33016395     0.01000
C2083       C  0.95028614  0.61645814  0.33703150    -0.21900
C2084       C  0.98725829  0.62426663  0.33920450    -0.22100
C2085       C  0.99139470  0.66190565  0.33394413     0.00900
H2086       H  0.93754602  0.59046842  0.34438330     0.14700
H2087       H  0.50831130  0.60536383  0.34875215     0.14700
N2088       N  0.95753371  0.82725566  0.33752770    -0.01600
C2089       C  0.93250497  0.83017442  0.36509738     0.01000
C2090       C  0.95027197  0.83703123  0.39807599    -0.21900
C2091       C  0.98724508  0.83920473  0.39027380    -0.22100
C2092       C  0.99138636  0.83395584  0.35263404     0.00900
H2093       H  0.93752876  0.84437570  0.42406574     0.14700
H2094       H  0.50829637  0.84874608  0.40918275     0.14700
C2095       C  0.65487237  0.67328935  0.12074049     0.82100
N2096       N  0.62619138  0.67809998  0.14435274    -0.76200
C2097       C  0.62074653  0.65488657  0.17326295     0.84600
N2098       N  0.64436136  0.62620643  0.17807665    -0.76100
C2099       C  0.67327323  0.62076432  0.15486706     0.84700
N2100       N  0.67808612  0.64438060  0.12618789    -0.77800
C2101       C  0.89377589  0.84126254  0.85964235     0.82100
N2102       N  0.88832970  0.87017434  0.83643082    -0.76200
C2103       C  0.85964820  0.89378656  0.84124249     0.84600
N2104       N  0.83643515  0.88833730  0.87015041    -0.76100
C2105       C  0.84124947  0.85965670  0.89376505     0.84700
N2106       N  0.87016188  0.83644710  0.88832184    -0.77800
C2107       C  0.67326854  0.85965802  0.62073557     0.82100
N2108       N  0.67808511  0.88834275  0.64434478    -0.76200
C2109       C  0.65487243  0.89379896  0.67325173     0.84600
N2110       N  0.62618868  0.87018994  0.67806742    -0.76100
C2111       C  0.62073974  0.84127469  0.65486131     0.84700
N2112       N  0.64435382  0.83645198  0.62618324    -0.77800
C2113       C  0.89378528  0.65488329  0.84125023     0.82100
N2114       N  0.88833700  0.67809460  0.87016117    -0.76200
C2115       C  0.85965670  0.67327839  0.89377361     0.84600
N2116       N  0.83644800  0.64436544  0.88832609    -0.76100
C2117       C  0.84126434  0.62075118  0.85964630     0.84700
N2118       N  0.87017473  0.62619960  0.83643613    -0.77800
C2119       C  0.62073832  0.67328192  0.85964429     0.82100
N2120       N  0.64434823  0.67809434  0.88832888    -0.76200
C2121       C  0.67325692  0.65488150  0.89377939     0.84600
N2122       N  0.67807299  0.62620121  0.87016551    -0.76100
C2123       C  0.65486602  0.62075658  0.84125017     0.84700
N2124       N  0.62618677  0.64437125  0.83643260    -0.77800
C2125       C  0.65486976  0.84126259  0.89377700     0.82100
N2126       N  0.67807689  0.87017708  0.88832931    -0.76200
C2127       C  0.67325696  0.89379172  0.85964915     0.84600
N2128       N  0.64434348  0.88834376  0.83644122    -0.76100
C2129       C  0.62073316  0.85966074  0.84125738     0.84700
N2130       N  0.62618657  0.83644734  0.87016630    -0.77800
C2131       C  0.84126529  0.65487550  0.62073663     0.82100
N2132       N  0.83644659  0.62619643  0.64435247    -0.76200
C2133       C  0.85965369  0.62075095  0.67326792     0.84600
N2134       N  0.88833619  0.64436233  0.67808237    -0.76100
C2135       C  0.89378814  0.67327040  0.65486774     0.84700
N2136       N  0.87017742  0.67808469  0.62618425    -0.77800
O2137       O  0.79680290  0.79250905  0.59397217    -0.69900
O2138       O  0.71773827  0.72202090  0.59398126    -0.70100
O2139       O  0.79251350  0.71773029  0.59397685    -0.69900
O2140       O  0.72202838  0.79679767  0.59397817    -0.70000
O2141       O  0.71087126  0.78128893  0.53757989    -0.69900
O2142       O  0.80365921  0.73323497  0.53757604    -0.69900
O2143       O  0.73323860  0.71086542  0.53758174    -0.69900
O2144       O  0.78129101  0.80365760  0.53757289    -0.70100
V2145       V  0.75727111  0.75726420  0.59433689     1.35200
V2146       V  0.75726517  0.75726159  0.53819759     1.35200
C2147       C  0.80255347  0.81009494  0.56409115     0.79400
C2148       C  0.71197718  0.70443636  0.56410159     0.79400
C2149       C  0.81009568  0.71197392  0.56409603     0.79300
C2150       C  0.70443997  0.80255174  0.56409935     0.79300
N2151       N  0.67698847  0.68729064  0.55698130    -0.01600
C2152       C  0.64941842  0.68437596  0.58200976     0.01000
C2153       C  0.61644157  0.67751699  0.56424157    -0.21900
C2154       C  0.62424531  0.67533717  0.52726808    -0.22100
C2155       C  0.66188406  0.68058489  0.52312799     0.00900
H2156       H  0.59045183  0.67017410  0.57698521     0.14700
H2157       H  0.60533741  0.66579332  0.50621655     0.14700
N2158       N  0.68728112  0.83753479  0.55697882    -0.01600
C2159       C  0.68435523  0.86510786  0.58200483     0.01000
C2160       C  0.67748571  0.89808163  0.56423268    -0.21900
C2161       C  0.67531047  0.89027275  0.52725972    -0.22100
C2162       C  0.68057176  0.85263395  0.52312385     0.00900
H2163       H  0.67013351  0.92407093  0.57697292     0.14700
H2164       H  0.66576129  0.90917520  0.50620597     0.14700
N2165       N  0.82725393  0.67699062  0.55697645    -0.01600
C2166       C  0.83018341  0.64941962  0.58200489     0.01000
C2167       C  0.83706051  0.61644601  0.56423671    -0.21900
C2168       C  0.83923636  0.62425321  0.52726305    -0.22100
C2169       C  0.83396800  0.66189100  0.52312307     0.00900
H2170       H  0.84441661  0.59045953  0.57698002     0.18900
H2171       H  0.84878954  0.60535144  0.50621244     0.14700
N2172       N  0.83753115  0.82726162  0.55696960    -0.01600
C2173       C  0.86510199  0.83019847  0.58199651     0.01000
C2174       C  0.89807116  0.83708451  0.56422659    -0.21900
C2175       C  0.89026167  0.83925865  0.52725360    -0.22100
C2176       C  0.85262675  0.83398079  0.52311561     0.00900
H2177       H  0.92405660  0.84444685  0.57696895     0.14700
H2178       H  0.90915952  0.84881693  0.50620107     0.14700
O2179       O  0.71087364  0.73323619  0.97693686    -0.69900
O2180       O  0.80366031  0.78129275  0.97692787    -0.70100
O2181       O  0.73323884  0.80365884  0.97693219    -0.69900
O2182       O  0.78129411  0.71086815  0.97693235    -0.70000
O2183       O  0.79679402  0.72201837  0.92053148    -0.69900
O2184       O  0.71772889  0.79250530  0.92053348    -0.69900
O2185       O  0.79250284  0.79679564  0.92052796    -0.69900
O2186       O  0.72201846  0.71772804  0.92053696    -0.70100
V2187       V  0.75726692  0.75726380  0.97631232     1.35200
V2188       V  0.75726111  0.75726158  0.92017288     1.35200
C2189       C  0.70443537  0.71197489  0.95041798     0.79400
C2190       C  0.81008930  0.80255466  0.95040692     0.79400
C2191       C  0.71197520  0.81009132  0.95041324     0.79300
C2192       C  0.80255396  0.70443501  0.95041237     0.79300
N2193       N  0.68727132  0.67699480  0.95753896    -0.01600
C2194       C  0.68433607  0.64942417  0.93251164     0.01000
C2195       C  0.67745245  0.61645224  0.95028109    -0.21900
C2196       C  0.67527812  0.62426036  0.98725440    -0.22100
C2197       C  0.68055400  0.66189719  0.99139268     0.00900
H2198       H  0.67009119  0.59046624  0.93753843     0.14700
H2199       H  0.66572095  0.60536038  0.50830615     0.14700
N2200       N  0.67699241  0.82724758  0.95753440    -0.01600
C2201       C  0.64942039  0.83017367  0.93250750     0.01000
C2202       C  0.61644737  0.83703879  0.95027834    -0.21900
C2203       C  0.62425571  0.83921087  0.98725185    -0.22100
C2204       C  0.66189346  0.83395269  0.99138916     0.00900
H2205       H  0.59045872  0.84439003  0.93753729     0.14700
H2206       H  0.60535288  0.84875606  0.50830485     0.14700
N2207       N  0.83753959  0.68728311  0.95753270    -0.01600
C2208       C  0.86510983  0.68436339  0.93250475     0.01000
C2209       C  0.89808480  0.67749811  0.95027383    -0.21900
C2210       C  0.89028000  0.67531952  0.98724726    -0.22100
C2211       C  0.85264220  0.68057437  0.99138659     0.00900
H2212       H  0.92407335  0.67015063  0.93753092     0.14700
H2213       H  0.90918548  0.66577205  0.50829923     0.14700
N2214       N  0.82723983  0.83754225  0.95752468    -0.01600
C2215       C  0.83015921  0.86511173  0.93249383     0.01000
C2216       C  0.83701463  0.89809121  0.95025992    -0.21900
C2217       C  0.83918716  0.89028949  0.98723483    -0.22100
C2218       C  0.83393894  0.85264924  0.99137802     0.00900
H2219       H  0.84435910  0.92408101  0.93751538     0.14700
H2220       H  0.84872681  0.90919933  0.50828565     0.14700
O2221       O  0.79250181  0.59399309  0.79679782    -0.69900
O2222       O  0.72201806  0.59400138  0.71772885    -0.70100
O2223       O  0.71772642  0.59399796  0.79250538    -0.69900
O2224       O  0.79679190  0.59399634  0.72202176    -0.70000
O2225       O  0.78128415  0.53759695  0.71086798    -0.69900
O2226       O  0.73322717  0.53759616  0.80365538    -0.69900
O2227       O  0.71086249  0.53760068  0.73323047    -0.69900
O2228       O  0.80364808  0.53759224  0.78129130    -0.70100
V2229       V  0.75725938  0.59435669  0.75726367     1.35200
V2230       V  0.75725531  0.53821657  0.75726145     1.35200
C2231       C  0.81008537  0.56411177  0.80255227     0.79400
C2232       C  0.70443302  0.56412197  0.71196866     0.79400
C2233       C  0.71196722  0.56411687  0.81008843     0.79300
C2234       C  0.80254712  0.56411624  0.70443659     0.79300
N2235       N  0.68728432  0.55700429  0.67698019    -0.01600
C2236       C  0.68436598  0.58203595  0.64941135     0.01000
C2237       C  0.67751448  0.56427036  0.61643097    -0.21900
C2238       C  0.67534341  0.52729467  0.62423151    -0.22100
C2239       C  0.68058838  0.52315073  0.66187208     0.00900
H2240       H  0.67017139  0.57701542  0.59044101     0.14700
H2241       H  0.66580558  0.50624410  0.60532075     0.14700
N2242       N  0.83753094  0.55699446  0.68728361    -0.01600
C2243       C  0.86510301  0.58202110  0.68436084     0.01000
C2244       C  0.89807689  0.56424905  0.67750139    -0.21900
C2245       C  0.89026907  0.52727523  0.67532945    -0.22100
C2246       C  0.85263070  0.52313891  0.68058201     0.00900
H2247       H  0.92406660  0.57698953  0.67015318     0.14700
H2248       H  0.90917263  0.50622109  0.66578658     0.14700
N2249       N  0.67698239  0.55699717  0.82724067    -0.01600
C2250       C  0.64941253  0.58202629  0.83016179     0.01000
C2251       C  0.61643722  0.56425786  0.83702456    -0.21900
C2252       C  0.62424169  0.52728349  0.83920007    -0.22100
C2253       C  0.66187949  0.52314308  0.83394619     0.00900
H2254       H  0.59044961  0.57700100  0.84437222     0.14700
H2255       H  0.60533633  0.50623196  0.84874514     0.14700
N2256       N  0.82724807  0.55699121  0.83753331    -0.01600
C2257       C  0.83018154  0.58201975  0.86510300     0.01000
C2258       C  0.83705770  0.56425072  0.89807672    -0.21900
C2259       C  0.83922908  0.52727660  0.89027082    -0.22100
C2260       C  0.83395918  0.52313689  0.85263360     0.00900
H2261       H  0.84441595  0.57699396  0.92406375     0.14700
H2262       H  0.84878157  0.50622393  0.90917368     0.14700
O2263       O  0.73323107  0.97695462  0.71086690    -0.69900
O2264       O  0.78128241  0.97694682  0.80366005    -0.70100
O2265       O  0.80365031  0.97694804  0.73323805    -0.69900
O2266       O  0.71086191  0.97695161  0.78128833    -0.70000
O2267       O  0.72200999  0.92055064  0.79679414    -0.69900
O2268       O  0.79249447  0.92054957  0.71772843    -0.69900
O2269       O  0.79678527  0.92054695  0.79250525    -0.69900
O2270       O  0.71771974  0.92055534  0.72201567    -0.70100
V2271       V  0.75725623  0.97633037  0.75726347     1.35200
V2272       V  0.75725211  0.92019070  0.75726113     1.35200
C2273       C  0.71196876  0.95043648  0.70442938     0.79400
C2274       C  0.80254446  0.95042681  0.81009042     0.79400
C2275       C  0.81008212  0.95042867  0.71197511     0.79300
C2276       C  0.70442653  0.95043155  0.80254958     0.79300
N2277       N  0.67699105  0.95755918  0.68726176    -0.01600
C2278       C  0.64941938  0.93253354  0.68432457     0.01000
C2279       C  0.61645142  0.95030522  0.67743320    -0.21900
C2280       C  0.62426246  0.98727785  0.67525598    -0.22100
C2281       C  0.66189710  0.99141372  0.68053757     0.00900
H2282       H  0.59046618  0.93756383  0.67006934     0.14700
H2283       H  0.60536646  0.50833069  0.66569427     0.14700
N2284       N  0.82724090  0.95754989  0.67699294    -0.01600
C2285       C  0.83016728  0.93252471  0.64941910     0.01000
C2286       C  0.83704054  0.95029810  0.61644730    -0.21900
C2287       C  0.83921796  0.98727080  0.62425816    -0.22100
C2288       C  0.83395402  0.99140517  0.66189626     0.00900
H2289       H  0.84439419  0.93755817  0.59045815     0.14700
H2290       H  0.84876995  0.50832489  0.60535826     0.14700
N2291       N  0.68726796  0.95755179  0.83753193    -0.01600
C2292       C  0.68433869  0.93252384  0.86510347     0.01000
C2293       C  0.67746120  0.95029340  0.89807590    -0.21900
C2294       C  0.67528469  0.98726701  0.89026775    -0.22100
C2295       C  0.68055310  0.99140587  0.85263049     0.00900
H2296       H  0.67010506  0.93755056  0.92406288     0.14700
H2297       H  0.66573118  0.50831881  0.90916890     0.14700
N2298       N  0.83753141  0.95754697  0.82724052    -0.01600
C2299       C  0.86510186  0.93251834  0.83016009     0.01000
C2300       C  0.89807682  0.95028644  0.83702748    -0.21900
C2301       C  0.89027148  0.98726008  0.83920756    -0.22100
C2302       C  0.85263364  0.99140025  0.83395153     0.00900
H2303       H  0.92406540  0.93754251  0.84437521     0.14700
H2304       H  0.90917650  0.50831102  0.84875597     0.14700
C2305       C  0.89378054  0.85966490  0.67325444     0.82100
N2306       N  0.88833133  0.83645788  0.64434012    -0.76200
C2307       C  0.85964832  0.84127459  0.62072970     0.84600
N2308       N  0.83643658  0.87018367  0.62618359    -0.76100
C2309       C  0.84125268  0.89379290  0.65486850     0.84700
N2310       N  0.87016659  0.88834388  0.67807595    -0.77800
O2311       O  0.59397575  0.79681329  0.79249693    -0.69900
O2312       O  0.59398510  0.71774876  0.72200724    -0.70100
O2313       O  0.59398078  0.79252671  0.71771901    -0.69900
O2314       O  0.59398064  0.72203581  0.79678363    -0.70000
O2315       O  0.53758350  0.71088156  0.78127444    -0.69900
O2316       O  0.53758172  0.80367404  0.73322015    -0.69900
O2317       O  0.53758663  0.73325020  0.71085111    -0.69900
O2318       O  0.53757811  0.78130342  0.80364228    -0.70100
V2319       V  0.59434008  0.75728133  0.75725158     1.35200
V2320       V  0.53820252  0.75727746  0.75724669     1.35200
C2321       C  0.56409580  0.80256532  0.81008099     0.79400
C2322       C  0.56410668  0.71198901  0.70442120     0.79400
C2323       C  0.56410092  0.81011001  0.71196042     0.79300
C2324       C  0.56410208  0.70444912  0.80253806     0.79300
N2325       N  0.55698861  0.67700108  0.68727117    -0.01600
C2326       C  0.58201794  0.64943126  0.68435065     0.01000
C2327       C  0.56425157  0.61645277  0.67749201    -0.21900
C2328       C  0.52727821  0.62425529  0.67531903    -0.22100
C2329       C  0.52313616  0.66189508  0.68057006     0.00900
H2330       H  0.57699521  0.59046319  0.67014606     0.14700
H2331       H  0.50622701  0.60534631  0.66577705     0.14700
N2332       N  0.55698135  0.82726665  0.67697582    -0.01600
C2333       C  0.58200923  0.83019268  0.64940590     0.01000
C2334       C  0.56424170  0.83706257  0.61643022    -0.21900
C2335       C  0.52726917  0.83923687  0.62423441    -0.22100
C2336       C  0.52312871  0.83397519  0.66187253     0.00900
H2337       H  0.57698477  0.84441450  0.59044242     0.14700
H2338       H  0.50621797  0.84878552  0.60532867     0.14700
N2339       N  0.55698218  0.68729301  0.83752235    -0.01600
C2340       C  0.58200880  0.68436866  0.86509499     0.01000
C2341       C  0.56423938  0.67750318  0.89806958    -0.21900
C2342       C  0.52726713  0.67532873  0.89026167    -0.22100
C2343       C  0.52312910  0.68058638  0.85262261     0.00900
H2344       H  0.57698091  0.67015317  0.92405978     0.14700
H2345       H  0.50621511  0.66578217  0.90916544     0.14700
N2346       N  0.55697486  0.83754496  0.82724623    -0.01600
C2347       C  0.58200123  0.86511629  0.83018059     0.01000
C2348       C  0.56423259  0.89808794  0.83706445    -0.21900
C2349       C  0.52726083  0.89027947  0.83923971    -0.22100
C2350       C  0.52312244  0.85264266  0.83396442     0.00900
H2351       H  0.57697493  0.92407431  0.84442475     0.14700
H2352       H  0.50621020  0.90917903  0.84879653     0.14700
O2353       O  0.97694416  0.71088374  0.73322590    -0.69900
O2354       O  0.97693462  0.80367584  0.78127893    -0.70100
O2355       O  0.97693833  0.73325211  0.80364768    -0.69900
O2356       O  0.97694020  0.78130617  0.71085595    -0.70000
O2357       O  0.92054115  0.79680885  0.72200189    -0.69900
O2358       O  0.92054127  0.71774362  0.79249251    -0.69900
O2359       O  0.92053660  0.79252060  0.79677934    -0.69900
O2360       O  0.92054599  0.72203029  0.71771568    -0.70100
V2361       V  0.97631929  0.75727967  0.75725210     1.35200
V2362       V  0.92018174  0.75727598  0.75724708     1.35200
C2363       C  0.95042618  0.70444589  0.71196367     0.79400
C2364       C  0.95041485  0.81010619  0.80253966     0.79400
C2365       C  0.95041988  0.71198908  0.81007998     0.79300
C2366       C  0.95042091  0.80256652  0.70441920     0.79300
N2367       N  0.95754661  0.68728201  0.67698356    -0.01600
C2368       C  0.93251932  0.68434864  0.64941261     0.01000
C2369       C  0.95028710  0.67746816  0.61644050    -0.21900
C2370       C  0.98725917  0.67529399  0.62424836    -0.22100
C2371       C  0.99139890  0.68056641  0.66188509     0.00900
H2372       H  0.93754405  0.67010937  0.59045370     0.14700
H2373       H  0.50831008  0.66573877  0.60534753     0.14700
N2374       N  0.95753982  0.83755076  0.68726146    -0.01600
C2375       C  0.93251143  0.86512100  0.68433473     0.01000
C2376       C  0.95027774  0.89809619  0.67746093    -0.21900
C2377       C  0.98725014  0.89029137  0.67528459    -0.22100
C2378       C  0.99139157  0.85265324  0.68054910     0.00900
H2379       H  0.93753350  0.92408391  0.67010749     0.14700
H2380       H  0.50829945  0.90919582  0.66573349     0.14700
N2381       N  0.95754049  0.67700513  0.82723742    -0.01600
C2382       C  0.93251477  0.64943234  0.83016392     0.01000
C2383       C  0.95028570  0.61645803  0.83703128    -0.21900
C2384       C  0.98725784  0.62426637  0.83920430    -0.22100
C2385       C  0.99139439  0.66190544  0.83394410     0.00900
H2386       H  0.93754532  0.59046798  0.84438307     0.14700
H2387       H  0.50831114  0.60536323  0.84875117     0.14700
N2388       N  0.95753347  0.82725564  0.83752762    -0.01600
C2389       C  0.93250474  0.83017452  0.86509732     0.01000
C2390       C  0.95027168  0.83703138  0.89807600    -0.21900
C2391       C  0.98724495  0.83920470  0.89027378    -0.22100
C2392       C  0.99138614  0.83395577  0.85263396     0.00900
H2393       H  0.93752882  0.84437579  0.92406519     0.14700
H2394       H  0.50829590  0.84874529  0.90918270     0.14700
C2395       C  0.65487219  0.67328952  0.62074035     0.82100
N2396       N  0.62619114  0.67810006  0.64435253    -0.76200
C2397       C  0.62074630  0.65488667  0.67326276     0.84600
N2398       N  0.64436113  0.62620656  0.67807653    -0.76100
C2399       C  0.67327308  0.62076454  0.65486695     0.84700
N2400       N  0.67808602  0.64438082  0.62618786    -0.77800
loop_ 
_geom_bond_atom_site_label_1 
_geom_bond_atom_site_label_2 
_geom_bond_distance 
_geom_bond_site_symmetry_2 
_ccdc_geom_bond_type 
C1            N2   1.359       .  A
C1            N6   1.358       .  A
C1          C289   1.474       .  S
N2            C3   1.358       .  A
C3            N4   1.359       .  A
C3          C199   1.474       .  S
N4            C5   1.358       .  A
C5            N6   1.359       .  A
C5          C115   1.474       .  S
C7            N8   1.358       .  A
C7           N12   1.359       .  A
C7           C59   1.474       .  S
N8            C9   1.359       .  A
C9           N10   1.358       .  A
C9          C178   1.474       .  S
N10          C11   1.359       .  A
C11          N12   1.358       .  A
C11         C233   1.474       .  S
C13          N14   1.359       .  A
C13          N18   1.358       .  A
C13         C282   1.474       .  S
N14          C15   1.358       .  A
C15          N16   1.359       .  A
C15         C108   1.474       .  S
N16          C17   1.358       .  A
C17          N18   1.359       .  A
C17         C157   1.474       .  S
C19          N20   1.358       .  A
C19          N24   1.359       .  A
C19         C240   1.474       .  S
N20          C21   1.359       .  A
C21          N22   1.358       .  A
C21          C94   1.474       .  S
N22          C23   1.359       .  A
C23          N24   1.358       .  A
C23         C150   1.474       .  S
C25          N26   1.359       .  A
C25          N30   1.358       .  A
C25         C101   1.474       .  S
N26          C27   1.358       .  A
C27          N28   1.359       .  A
C27         C192   1.474       .  S
N28          C29   1.358       .  A
C29          N30   1.359       .  A
C29         C247   1.474       .  S
C31          N32   1.358       .  A
C31          N36   1.359       .  A
C31          C66   1.474       .  S
N32          C33   1.359       .  A
C33          N34   1.358       .  A
C33         C143   1.474       .  S
N34          C35   1.359       .  A
C35          N36   1.358       .  A
C35         C268   1.474       .  S
O37          V45   1.920       .  S
O37          C47   1.274       .  A
O38          V45   1.920       .  S
O38          C48   1.274       .  A
O39          V45   1.920       .  S
O39          C49   1.274       .  A
O40          V45   1.920       .  S
O40          C50   1.274       .  A
O41          V46   1.894       .  S
O41          C50   1.254       .  A
O42          V46   1.894       .  S
O42          C49   1.254       .  A
O43          V46   1.894       .  S
O43          C48   1.254       .  A
O44          V46   1.894       .  S
O44          C47   1.254       .  A
V45          V46   2.035       .  T
C47          N72   1.436       .  S
C48          N51   1.436       .  S
C49          N65   1.436       .  S
C50          N58   1.436       .  S
N51          C55   1.366       .  A
N51          C52   1.354       .  A
C52         C295   1.474       .  S
C52          C53   1.381       .  A
C53          C54   1.372       .  A
C53          H56   1.083       .  S
C54          C55   1.386       .  A
C54          H57   1.083       .  S
C55         C397   1.497   1_554  S
N58          C62   1.366       .  A
N58          C59   1.354       .  A
C59          C60   1.381       .  A
C60          C61   1.372       .  A
C60          H63   1.083       .  S
C61          C62   1.386       .  A
C61          H64   1.083       .  S
C62         C404   1.497   1_554  S
N65          C69   1.366       .  A
N65          C66   1.354       .  A
C66          C67   1.381       .  A
C67          C68   1.372       .  A
C67          H70   1.083       .  S
C68          C69   1.386       .  A
C68          H71   1.083       .  S
C69         C411   1.497   1_554  S
N72          C76   1.366       .  A
N72          C73   1.354       .  A
C73         C207   1.474       .  S
C73          C74   1.381       .  A
C74          C75   1.372       .  A
C74          H77   1.083       .  S
C75          C76   1.386       .  A
C75          H78   1.083       .  S
C76         C418   1.497   1_554  S
O79          V87   1.894       .  S
O79          C89   1.254       .  A
O80          V87   1.894       .  S
O80          C90   1.254       .  A
O81          V87   1.894       .  S
O81          C91   1.254       .  A
O82          V87   1.894       .  S
O82          C92   1.254       .  A
O83          V88   1.920       .  S
O83          C92   1.274       .  A
O84          V88   1.920       .  S
O84          C91   1.274       .  A
O85          V88   1.920       .  S
O85          C90   1.274       .  A
O86          V88   1.920       .  S
O86          C89   1.274       .  A
V87          V88   2.035       .  T
C89          N93   1.436       .  S
C90         N114   1.436       .  S
C91         N100   1.436       .  S
C92         N107   1.436       .  S
N93          C97   1.366       .  A
N93          C94   1.354       .  A
C94          C95   1.381       .  A
C95          C96   1.372       .  A
C95          H98   1.083       .  S
C96          C97   1.386       .  A
C96         H399   1.083       .  S
C97         C355   1.497       .  S
H99         C396   1.083   1_554  S
N100        C104   1.366       .  A
N100        C101   1.354       .  A
C101        C102   1.381       .  A
C102        C103   1.372       .  A
C102        H105   1.083       .  S
C103        C104   1.386       .  A
C103        H406   1.083       .  S
C104        C362   1.497       .  S
H106        C403   1.083   1_554  S
N107        C111   1.366       .  A
N107        C108   1.354       .  A
C108        C109   1.381       .  A
C109        C110   1.372       .  A
C109        H112   1.083       .  S
C110        C111   1.386       .  A
C110        H413   1.083       .  S
C111        C369   1.497       .  S
H113        C410   1.083   1_554  S
N114        C118   1.366       .  A
N114        C115   1.354       .  A
C115        C116   1.381       .  A
C116        C117   1.372       .  A
C116        H119   1.083       .  S
C117        C118   1.386       .  A
C117        H420   1.083       .  S
C118        C376   1.497       .  S
H120        C417   1.083   1_554  S
O121        V129   1.920       .  S
O121        C131   1.274       .  A
O122        V129   1.920       .  S
O122        C132   1.274       .  A
O123        V129   1.920       .  S
O123        C133   1.274       .  A
O124        V129   1.920       .  S
O124        C134   1.274       .  A
O125        V130   1.894       .  S
O125        C134   1.254       .  A
O126        V130   1.894       .  S
O126        C133   1.254       .  A
O127        V130   1.894       .  S
O127        C132   1.254       .  A
O128        V130   1.894       .  S
O128        C131   1.254       .  A
V129        V130   2.035       .  T
C131        N156   1.436       .  S
C132        N135   1.436       .  S
C133        N149   1.436       .  S
C134        N142   1.436       .  S
N135        C139   1.366       .  A
N135        C136   1.354       .  A
C136        C299   1.474       .  S
C136        C137   1.381       .  A
C137        C138   1.372       .  A
C137        H140   1.083       .  S
C138        C139   1.386       .  A
C138        H141   1.083       .  S
C139        C781   1.497   1_545  S
N142        C146   1.366       .  A
N142        C143   1.354       .  A
C143        C144   1.381       .  A
C144        C145   1.372       .  A
C144        H147   1.083       .  S
C145        C146   1.386       .  A
C145        H148   1.083       .  S
C146        C788   1.497   1_545  S
N149        C153   1.366       .  A
N149        C150   1.354       .  A
C150        C151   1.381       .  A
C151        C152   1.372       .  A
C151        H154   1.083       .  S
C152        C153   1.386       .  A
C152        H155   1.083       .  S
C153        C795   1.497   1_545  S
N156        C160   1.366       .  A
N156        C157   1.354       .  A
C157        C158   1.381       .  A
C158        C159   1.372       .  A
C158        H161   1.083       .  S
C159        C160   1.386       .  A
C159        H162   1.083       .  S
C160        C802   1.497   1_545  S
O163        V171   1.894       .  S
O163        C173   1.254       .  A
O164        V171   1.894       .  S
O164        C174   1.254       .  A
O165        V171   1.894       .  S
O165        C175   1.254       .  A
O166        V171   1.894       .  S
O166        C176   1.254       .  A
O167        V172   1.920       .  S
O167        C176   1.274       .  A
O168        V172   1.920       .  S
O168        C175   1.274       .  A
O169        V172   1.920       .  S
O169        C174   1.274       .  A
O170        V172   1.920       .  S
O170        C173   1.274       .  A
V171        V172   2.035       .  T
C173        N177   1.436       .  S
C174        N198   1.436       .  S
C175        N184   1.436       .  S
C176        N191   1.436       .  S
N177        C181   1.366       .  A
N177        C178   1.354       .  A
C178        C179   1.381       .  A
C179        C180   1.372       .  A
C179        H182   1.083       .  S
C180        C181   1.386       .  A
C180        H783   1.083       .  S
C181        C739   1.497       .  S
H183        C780   1.083   1_545  S
N184        C188   1.366       .  A
N184        C185   1.354       .  A
C185        C209   1.474       .  S
C185        C186   1.381       .  A
C186        C187   1.372       .  A
C186        H189   1.083       .  S
C187        C188   1.386       .  A
C187        H790   1.083       .  S
C188        C746   1.497       .  S
H190        C787   1.083   1_545  S
N191        C195   1.366       .  A
N191        C192   1.354       .  A
C192        C193   1.381       .  A
C193        C194   1.372       .  A
C193        H196   1.083       .  S
C194        C195   1.386       .  A
C194        H797   1.083       .  S
C195        C753   1.497       .  S
H197        C794   1.083   1_545  S
N198        C202   1.366       .  A
N198        C199   1.354       .  A
C199        C200   1.381       .  A
C200        C201   1.372       .  A
C200        H203   1.083       .  S
C201        C202   1.386       .  A
C201        H804   1.083       .  S
C202        C760   1.497       .  S
H204        C801   1.083   1_545  S
C205        N206   1.359       .  A
C205        N210   1.358       .  A
C205        C275   1.474       .  S
N206        C207   1.358       .  A
C207        N208   1.359       .  A
N208        C209   1.358       .  A
C209        N210   1.359       .  A
O211        V219   1.920       .  S
O211        C221   1.274       .  A
O212        V219   1.920       .  S
O212        C222   1.274       .  A
O213        V219   1.920       .  S
O213        C223   1.274       .  A
O214        V219   1.920       .  S
O214        C224   1.274       .  A
O215        V220   1.894       .  S
O215        C224   1.254       .  A
O216        V220   1.894       .  S
O216        C223   1.254       .  A
O217        V220   1.894       .  S
O217        C222   1.254       .  A
O218        V220   1.894       .  S
O218        C221   1.254       .  A
V219        V220   2.035       .  T
C221        N246   1.436       .  S
C222        N225   1.436       .  S
C223        N232   1.436       .  S
C224        N239   1.436       .  S
N225        C229   1.366       .  A
N225        C226   1.354       .  A
C226        C297   1.474       .  S
C226        C227   1.381       .  A
C227        C228   1.372       .  A
C227        H230   1.083       .  S
C228        C229   1.386       .  A
C228        H231   1.083       .  S
C229       C1471   1.497   1_455  S
N232        C236   1.366       .  A
N232        C233   1.354       .  A
C233        C234   1.381       .  A
C234        C235   1.372       .  A
C234        H237   1.083       .  S
C235        C236   1.386       .  A
C235        H238   1.083       .  S
C236       C1478   1.497   1_455  S
N239        C243   1.366       .  A
N239        C240   1.354       .  A
C240        C241   1.381       .  A
C241        C242   1.372       .  A
C241        H244   1.083       .  S
C242        C243   1.386       .  A
C242        H245   1.083       .  S
C243       C1485   1.497   1_455  S
N246        C250   1.366       .  A
N246        C247   1.354       .  A
C247        C248   1.381       .  A
C248        C249   1.372       .  A
C248        H251   1.083       .  S
C249        C250   1.386       .  A
C249        H252   1.083       .  S
C250       C1492   1.497   1_455  S
O253        V261   1.894       .  S
O253        C263   1.254       .  A
O254        V261   1.894       .  S
O254        C264   1.254       .  A
O255        V261   1.894       .  S
O255        C265   1.254       .  A
O256        V261   1.894       .  S
O256        C266   1.254       .  A
O257        V262   1.920       .  S
O257        C266   1.274       .  A
O258        V262   1.920       .  S
O258        C265   1.274       .  A
O259        V262   1.920       .  S
O259        C264   1.274       .  A
O260        V262   1.920       .  S
O260        C263   1.274       .  A
V261        V262   2.035       .  T
C263        N267   1.436       .  S
C264        N288   1.436       .  S
C265        N281   1.436       .  S
C266        N274   1.436       .  S
N267        C271   1.366       .  A
N267        C268   1.354       .  A
C268        C269   1.381       .  A
C269        C270   1.372       .  A
C269        H272   1.083       .  S
C270        C271   1.386       .  A
C270       H1473   1.083       .  S
C271       C1429   1.497       .  S
H273       C1470   1.083   1_455  S
N274        C278   1.366       .  A
N274        C275   1.354       .  A
C275        C276   1.381       .  A
C276        C277   1.372       .  A
C276        H279   1.083       .  S
C277        C278   1.386       .  A
C277       H1480   1.083       .  S
C278       C1436   1.497       .  S
H280       C1477   1.083   1_455  S
N281        C285   1.366       .  A
N281        C282   1.354       .  A
C282        C283   1.381       .  A
C283        C284   1.372       .  A
C283        H286   1.083       .  S
C284        C285   1.386       .  A
C284       H1487   1.083       .  S
C285       C1443   1.497       .  S
H287       C1484   1.083   1_455  S
N288        C292   1.366       .  A
N288        C289   1.354       .  A
C289        C290   1.381       .  A
C290        C291   1.372       .  A
C290        H293   1.083       .  S
C291        C292   1.386       .  A
C291       H1494   1.083       .  S
C292       C1450   1.497       .  S
H294       C1491   1.083   1_455  S
C295        N296   1.358       .  A
C295        N300   1.359       .  A
N296        C297   1.359       .  A
C297        N298   1.358       .  A
N298        C299   1.359       .  A
C299        N300   1.358       .  A
C301        N302   1.359       .  A
C301        N306   1.358       .  A
C301        C589   1.474       .  S
N302        C303   1.358       .  A
C303        N304   1.359       .  A
C303        C499   1.474       .  S
N304        C305   1.358       .  A
C305        N306   1.359       .  A
C305        C415   1.474       .  S
C307        N308   1.358       .  A
C307        N312   1.359       .  A
C307        C359   1.474       .  S
N308        C309   1.359       .  A
C309        N310   1.358       .  A
C309        C478   1.474       .  S
N310        C311   1.359       .  A
C311        N312   1.358       .  A
C311        C533   1.474       .  S
C313        N314   1.359       .  A
C313        N318   1.358       .  A
C313        C582   1.474       .  S
N314        C315   1.358       .  A
C315        N316   1.359       .  A
C315        C408   1.474       .  S
N316        C317   1.358       .  A
C317        N318   1.359       .  A
C317        C457   1.474       .  S
C319        N320   1.358       .  A
C319        N324   1.359       .  A
C319        C540   1.474       .  S
N320        C321   1.359       .  A
C321        N322   1.358       .  A
C321        C394   1.474       .  S
N322        C323   1.359       .  A
C323        N324   1.358       .  A
C323        C450   1.474       .  S
C325        N326   1.359       .  A
C325        N330   1.358       .  A
C325        C401   1.474       .  S
N326        C327   1.358       .  A
C327        N328   1.359       .  A
C327        C492   1.474       .  S
N328        C329   1.358       .  A
C329        N330   1.359       .  A
C329        C547   1.474       .  S
C331        N332   1.358       .  A
C331        N336   1.359       .  A
C331        C366   1.474       .  S
N332        C333   1.359       .  A
C333        N334   1.358       .  A
C333        C443   1.474       .  S
N334        C335   1.359       .  A
C335        N336   1.358       .  A
C335        C568   1.474       .  S
O337        V345   1.920       .  S
O337        C347   1.274       .  A
O338        V345   1.920       .  S
O338        C348   1.274       .  A
O339        V345   1.920       .  S
O339        C349   1.274       .  A
O340        V345   1.920       .  S
O340        C350   1.274       .  A
O341        V346   1.894       .  S
O341        C350   1.254       .  A
O342        V346   1.894       .  S
O342        C349   1.254       .  A
O343        V346   1.894       .  S
O343        C348   1.254       .  A
O344        V346   1.894       .  S
O344        C347   1.254       .  A
V345        V346   2.035       .  T
C347        N372   1.436       .  S
C348        N351   1.436       .  S
C349        N365   1.436       .  S
C350        N358   1.436       .  S
N351        C355   1.366       .  A
N351        C352   1.354       .  A
C352        C595   1.474       .  S
C352        C353   1.381       .  A
C353        C354   1.372       .  A
C353        H356   1.083       .  S
C354        C355   1.386       .  A
C354        H357   1.083       .  S
N358        C362   1.366       .  A
N358        C359   1.354       .  A
C359        C360   1.381       .  A
C360        C361   1.372       .  A
C360        H363   1.083       .  S
C361        C362   1.386       .  A
C361        H364   1.083       .  S
N365        C369   1.366       .  A
N365        C366   1.354       .  A
C366        C367   1.381       .  A
C367        C368   1.372       .  A
C367        H370   1.083       .  S
C368        C369   1.386       .  A
C368        H371   1.083       .  S
N372        C376   1.366       .  A
N372        C373   1.354       .  A
C373        C507   1.474       .  S
C373        C374   1.381       .  A
C374        C375   1.372       .  A
C374        H377   1.083       .  S
C375        C376   1.386       .  A
C375        H378   1.083       .  S
O379        V387   1.894       .  S
O379        C389   1.254       .  A
O380        V387   1.894       .  S
O380        C390   1.254       .  A
O381        V387   1.894       .  S
O381        C391   1.254       .  A
O382        V387   1.894       .  S
O382        C392   1.254       .  A
O383        V388   1.920       .  S
O383        C392   1.274       .  A
O384        V388   1.920       .  S
O384        C391   1.274       .  A
O385        V388   1.920       .  S
O385        C390   1.274       .  A
O386        V388   1.920       .  S
O386        C389   1.274       .  A
V387        V388   2.035       .  T
C389        N393   1.436       .  S
C390        N414   1.436       .  S
C391        N400   1.436       .  S
C392        N407   1.436       .  S
N393        C397   1.366       .  A
N393        C394   1.354       .  A
C394        C395   1.381       .  A
C395        C396   1.372       .  A
C395        H398   1.083       .  S
C396        C397   1.386       .  A
N400        C404   1.366       .  A
N400        C401   1.354       .  A
C401        C402   1.381       .  A
C402        C403   1.372       .  A
C402        H405   1.083       .  S
C403        C404   1.386       .  A
N407        C411   1.366       .  A
N407        C408   1.354       .  A
C408        C409   1.381       .  A
C409        C410   1.372       .  A
C409        H412   1.083       .  S
C410        C411   1.386       .  A
N414        C418   1.366       .  A
N414        C415   1.354       .  A
C415        C416   1.381       .  A
C416        C417   1.372       .  A
C416        H419   1.083       .  S
C417        C418   1.386       .  A
O421        V429   1.920       .  S
O421        C431   1.274       .  A
O422        V429   1.920       .  S
O422        C432   1.274       .  A
O423        V429   1.920       .  S
O423        C433   1.274       .  A
O424        V429   1.920       .  S
O424        C434   1.274       .  A
O425        V430   1.894       .  S
O425        C434   1.254       .  A
O426        V430   1.894       .  S
O426        C433   1.254       .  A
O427        V430   1.894       .  S
O427        C432   1.254       .  A
O428        V430   1.894       .  S
O428        C431   1.254       .  A
V429        V430   2.035       .  T
C431        N456   1.436       .  S
C432        N435   1.436       .  S
C433        N449   1.436       .  S
C434        N442   1.436       .  S
N435        C439   1.366       .  A
N435        C436   1.354       .  A
C436        C599   1.474       .  S
C436        C437   1.381       .  A
C437        C438   1.372       .  A
C437        H440   1.083       .  S
C438        C439   1.386       .  A
C438        H441   1.083       .  S
C439       C1081   1.497   1_545  S
N442        C446   1.366       .  A
N442        C443   1.354       .  A
C443        C444   1.381       .  A
C444        C445   1.372       .  A
C444        H447   1.083       .  S
C445        C446   1.386       .  A
C445        H448   1.083       .  S
C446       C1088   1.497   1_545  S
N449        C453   1.366       .  A
N449        C450   1.354       .  A
C450        C451   1.381       .  A
C451        C452   1.372       .  A
C451        H454   1.083       .  S
C452        C453   1.386       .  A
C452        H455   1.083       .  S
C453       C1095   1.497   1_545  S
N456        C460   1.366       .  A
N456        C457   1.354       .  A
C457        C458   1.381       .  A
C458        C459   1.372       .  A
C458        H461   1.083       .  S
C459        C460   1.386       .  A
C459        H462   1.083       .  S
C460       C1102   1.497   1_545  S
O463        V471   1.894       .  S
O463        C473   1.254       .  A
O464        V471   1.894       .  S
O464        C474   1.254       .  A
O465        V471   1.894       .  S
O465        C475   1.254       .  A
O466        V471   1.894       .  S
O466        C476   1.254       .  A
O467        V472   1.920       .  S
O467        C476   1.274       .  A
O468        V472   1.920       .  S
O468        C475   1.274       .  A
O469        V472   1.920       .  S
O469        C474   1.274       .  A
O470        V472   1.920       .  S
O470        C473   1.274       .  A
V471        V472   2.035       .  T
C473        N477   1.436       .  S
C474        N498   1.436       .  S
C475        N484   1.436       .  S
C476        N491   1.436       .  S
N477        C481   1.366       .  A
N477        C478   1.354       .  A
C478        C479   1.381       .  A
C479        C480   1.372       .  A
C479        H482   1.083       .  S
C480        C481   1.386       .  A
C480       H1083   1.083       .  S
C481       C1039   1.497       .  S
H483       C1080   1.083   1_545  S
N484        C488   1.366       .  A
N484        C485   1.354       .  A
C485        C509   1.474       .  S
C485        C486   1.381       .  A
C486        C487   1.372       .  A
C486        H489   1.083       .  S
C487        C488   1.386       .  A
C487       H1090   1.083       .  S
C488       C1046   1.497       .  S
H490       C1087   1.083   1_545  S
N491        C495   1.366       .  A
N491        C492   1.354       .  A
C492        C493   1.381       .  A
C493        C494   1.372       .  A
C493        H496   1.083       .  S
C494        C495   1.386       .  A
C494       H1097   1.083       .  S
C495       C1053   1.497       .  S
H497       C1094   1.083   1_545  S
N498        C502   1.366       .  A
N498        C499   1.354       .  A
C499        C500   1.381       .  A
C500        C501   1.372       .  A
C500        H503   1.083       .  S
C501        C502   1.386       .  A
C501       H1104   1.083       .  S
C502       C1060   1.497       .  S
H504       C1101   1.083   1_545  S
C505        N506   1.359       .  A
C505        N510   1.358       .  A
C505        C575   1.474       .  S
N506        C507   1.358       .  A
C507        N508   1.359       .  A
N508        C509   1.358       .  A
C509        N510   1.359       .  A
O511        V519   1.920       .  S
O511        C521   1.274       .  A
O512        V519   1.920       .  S
O512        C522   1.274       .  A
O513        V519   1.920       .  S
O513        C523   1.274       .  A
O514        V519   1.920       .  S
O514        C524   1.274       .  A
O515        V520   1.894       .  S
O515        C524   1.254       .  A
O516        V520   1.894       .  S
O516        C523   1.254       .  A
O517        V520   1.894       .  S
O517        C522   1.254       .  A
O518        V520   1.894       .  S
O518        C521   1.254       .  A
V519        V520   2.035       .  T
C521        N546   1.436       .  S
C522        N525   1.436       .  S
C523        N532   1.436       .  S
C524        N539   1.436       .  S
N525        C529   1.366       .  A
N525        C526   1.354       .  A
C526        C597   1.474       .  S
C526        C527   1.381       .  A
C527        C528   1.372       .  A
C527        H530   1.083       .  S
C528        C529   1.386       .  A
C528        H531   1.083       .  S
C529       C1771   1.497   1_455  S
N532        C536   1.366       .  A
N532        C533   1.354       .  A
C533        C534   1.381       .  A
C534        C535   1.372       .  A
C534        H537   1.083       .  S
C535        C536   1.386       .  A
C535        H538   1.083       .  S
C536       C1778   1.497   1_455  S
N539        C543   1.366       .  A
N539        C540   1.354       .  A
C540        C541   1.381       .  A
C541        C542   1.372       .  A
C541        H544   1.083       .  S
C542        C543   1.386       .  A
C542        H545   1.083       .  S
C543       C1785   1.497   1_455  S
N546        C550   1.366       .  A
N546        C547   1.354       .  A
C547        C548   1.381       .  A
C548        C549   1.372       .  A
C548        H551   1.083       .  S
C549        C550   1.386       .  A
C549        H552   1.083       .  S
C550       C1792   1.497   1_455  S
O553        V561   1.894       .  S
O553        C563   1.254       .  A
O554        V561   1.894       .  S
O554        C564   1.254       .  A
O555        V561   1.894       .  S
O555        C565   1.254       .  A
O556        V561   1.894       .  S
O556        C566   1.254       .  A
O557        V562   1.920       .  S
O557        C566   1.274       .  A
O558        V562   1.920       .  S
O558        C565   1.274       .  A
O559        V562   1.920       .  S
O559        C564   1.274       .  A
O560        V562   1.920       .  S
O560        C563   1.274       .  A
V561        V562   2.035       .  T
C563        N567   1.436       .  S
C564        N588   1.436       .  S
C565        N581   1.436       .  S
C566        N574   1.436       .  S
N567        C571   1.366       .  A
N567        C568   1.354       .  A
C568        C569   1.381       .  A
C569        C570   1.372       .  A
C569        H572   1.083       .  S
C570        C571   1.386       .  A
C570       H1773   1.083       .  S
C571       C1729   1.497       .  S
H573       C1770   1.083   1_455  S
N574        C578   1.366       .  A
N574        C575   1.354       .  A
C575        C576   1.381       .  A
C576        C577   1.372       .  A
C576        H579   1.083       .  S
C577        C578   1.386       .  A
C577       H1780   1.083       .  S
C578       C1736   1.497       .  S
H580       C1777   1.083   1_455  S
N581        C585   1.366       .  A
N581        C582   1.354       .  A
C582        C583   1.381       .  A
C583        C584   1.372       .  A
C583        H586   1.083       .  S
C584        C585   1.386       .  A
C584       H1787   1.083       .  S
C585       C1743   1.497       .  S
H587       C1784   1.083   1_455  S
N588        C592   1.366       .  A
N588        C589   1.354       .  A
C589        C590   1.381       .  A
C590        C591   1.372       .  A
C590        H593   1.083       .  S
C591        C592   1.386       .  A
C591       H1794   1.083       .  S
C592       C1750   1.497       .  S
H594       C1791   1.083   1_455  S
C595        N596   1.358       .  A
C595        N600   1.359       .  A
N596        C597   1.359       .  A
C597        N598   1.358       .  A
N598        C599   1.359       .  A
C599        N600   1.358       .  A
C601        N602   1.359       .  A
C601        N606   1.358       .  A
C601        C889   1.474       .  S
N602        C603   1.358       .  A
C603        N604   1.359       .  A
C603        C799   1.474       .  S
N604        C605   1.358       .  A
C605        N606   1.359       .  A
C605        C715   1.474       .  S
C607        N608   1.358       .  A
C607        N612   1.359       .  A
C607        C659   1.474       .  S
N608        C609   1.359       .  A
C609        N610   1.358       .  A
C609        C778   1.474       .  S
N610        C611   1.359       .  A
C611        N612   1.358       .  A
C611        C833   1.474       .  S
C613        N614   1.359       .  A
C613        N618   1.358       .  A
C613        C882   1.474       .  S
N614        C615   1.358       .  A
C615        N616   1.359       .  A
C615        C708   1.474       .  S
N616        C617   1.358       .  A
C617        N618   1.359       .  A
C617        C757   1.474       .  S
C619        N620   1.358       .  A
C619        N624   1.359       .  A
C619        C840   1.474       .  S
N620        C621   1.359       .  A
C621        N622   1.358       .  A
C621        C694   1.474       .  S
N622        C623   1.359       .  A
C623        N624   1.358       .  A
C623        C750   1.474       .  S
C625        N626   1.359       .  A
C625        N630   1.358       .  A
C625        C701   1.474       .  S
N626        C627   1.358       .  A
C627        N628   1.359       .  A
C627        C792   1.474       .  S
N628        C629   1.358       .  A
C629        N630   1.359       .  A
C629        C847   1.474       .  S
C631        N632   1.358       .  A
C631        N636   1.359       .  A
C631        C666   1.474       .  S
N632        C633   1.359       .  A
C633        N634   1.358       .  A
C633        C743   1.474       .  S
N634        C635   1.359       .  A
C635        N636   1.358       .  A
C635        C868   1.474       .  S
O637        V645   1.920       .  S
O637        C647   1.274       .  A
O638        V645   1.920       .  S
O638        C648   1.274       .  A
O639        V645   1.920       .  S
O639        C649   1.274       .  A
O640        V645   1.920       .  S
O640        C650   1.274       .  A
O641        V646   1.894       .  S
O641        C650   1.254       .  A
O642        V646   1.894       .  S
O642        C649   1.254       .  A
O643        V646   1.894       .  S
O643        C648   1.254       .  A
O644        V646   1.894       .  S
O644        C647   1.254       .  A
V645        V646   2.035       .  T
C647        N672   1.436       .  S
C648        N651   1.436       .  S
C649        N665   1.436       .  S
C650        N658   1.436       .  S
N651        C655   1.366       .  A
N651        C652   1.354       .  A
C652        C895   1.474       .  S
C652        C653   1.381       .  A
C653        C654   1.372       .  A
C653        H656   1.083       .  S
C654        C655   1.386       .  A
C654        H657   1.083       .  S
C655        C997   1.497   1_554  S
N658        C662   1.366       .  A
N658        C659   1.354       .  A
C659        C660   1.381       .  A
C660        C661   1.372       .  A
C660        H663   1.083       .  S
C661        C662   1.386       .  A
C661        H664   1.083       .  S
C662       C1004   1.497   1_554  S
N665        C669   1.366       .  A
N665        C666   1.354       .  A
C666        C667   1.381       .  A
C667        C668   1.372       .  A
C667        H670   1.083       .  S
C668        C669   1.386       .  A
C668        H671   1.083       .  S
C669       C1011   1.497   1_554  S
N672        C676   1.366       .  A
N672        C673   1.354       .  A
C673        C807   1.474       .  S
C673        C674   1.381       .  A
C674        C675   1.372       .  A
C674        H677   1.083       .  S
C675        C676   1.386       .  A
C675        H678   1.083       .  S
C676       C1018   1.497   1_554  S
O679        V687   1.894       .  S
O679        C689   1.254       .  A
O680        V687   1.894       .  S
O680        C690   1.254       .  A
O681        V687   1.894       .  S
O681        C691   1.254       .  A
O682        V687   1.894       .  S
O682        C692   1.254       .  A
O683        V688   1.920       .  S
O683        C692   1.274       .  A
O684        V688   1.920       .  S
O684        C691   1.274       .  A
O685        V688   1.920       .  S
O685        C690   1.274       .  A
O686        V688   1.920       .  S
O686        C689   1.274       .  A
V687        V688   2.035       .  T
C689        N693   1.436       .  S
C690        N714   1.436       .  S
C691        N700   1.436       .  S
C692        N707   1.436       .  S
N693        C697   1.366       .  A
N693        C694   1.354       .  A
C694        C695   1.381       .  A
C695        C696   1.372       .  A
C695        H698   1.083       .  S
C696        C697   1.386       .  A
C696        H999   1.083       .  S
C697        C955   1.497       .  S
H699        C996   1.083   1_554  S
N700        C704   1.366       .  A
N700        C701   1.354       .  A
C701        C702   1.381       .  A
C702        C703   1.372       .  A
C702        H705   1.083       .  S
C703        C704   1.386       .  A
C703       H1006   1.083       .  S
C704        C962   1.497       .  S
H706       C1003   1.083   1_554  S
N707        C711   1.366       .  A
N707        C708   1.354       .  A
C708        C709   1.381       .  A
C709        C710   1.372       .  A
C709        H712   1.083       .  S
C710        C711   1.386       .  A
C710       H1013   1.083       .  S
C711        C969   1.497       .  S
H713       C1010   1.083   1_554  S
N714        C718   1.366       .  A
N714        C715   1.354       .  A
C715        C716   1.381       .  A
C716        C717   1.372       .  A
C716        H719   1.083       .  S
C717        C718   1.386       .  A
C717       H1020   1.083       .  S
C718        C976   1.497       .  S
H720       C1017   1.083   1_554  S
O721        V729   1.920       .  S
O721        C731   1.274       .  A
O722        V729   1.920       .  S
O722        C732   1.274       .  A
O723        V729   1.920       .  S
O723        C733   1.274       .  A
O724        V729   1.920       .  S
O724        C734   1.274       .  A
O725        V730   1.894       .  S
O725        C734   1.254       .  A
O726        V730   1.894       .  S
O726        C733   1.254       .  A
O727        V730   1.894       .  S
O727        C732   1.254       .  A
O728        V730   1.894       .  S
O728        C731   1.254       .  A
V729        V730   2.035       .  T
C731        N756   1.436       .  S
C732        N735   1.436       .  S
C733        N749   1.436       .  S
C734        N742   1.436       .  S
N735        C739   1.366       .  A
N735        C736   1.354       .  A
C736        C899   1.474       .  S
C736        C737   1.381       .  A
C737        C738   1.372       .  A
C737        H740   1.083       .  S
C738        C739   1.386       .  A
C738        H741   1.083       .  S
N742        C746   1.366       .  A
N742        C743   1.354       .  A
C743        C744   1.381       .  A
C744        C745   1.372       .  A
C744        H747   1.083       .  S
C745        C746   1.386       .  A
C745        H748   1.083       .  S
N749        C753   1.366       .  A
N749        C750   1.354       .  A
C750        C751   1.381       .  A
C751        C752   1.372       .  A
C751        H754   1.083       .  S
C752        C753   1.386       .  A
C752        H755   1.083       .  S
N756        C760   1.366       .  A
N756        C757   1.354       .  A
C757        C758   1.381       .  A
C758        C759   1.372       .  A
C758        H761   1.083       .  S
C759        C760   1.386       .  A
C759        H762   1.083       .  S
O763        V771   1.894       .  S
O763        C773   1.254       .  A
O764        V771   1.894       .  S
O764        C774   1.254       .  A
O765        V771   1.894       .  S
O765        C775   1.254       .  A
O766        V771   1.894       .  S
O766        C776   1.254       .  A
O767        V772   1.920       .  S
O767        C776   1.274       .  A
O768        V772   1.920       .  S
O768        C775   1.274       .  A
O769        V772   1.920       .  S
O769        C774   1.274       .  A
O770        V772   1.920       .  S
O770        C773   1.274       .  A
V771        V772   2.035       .  T
C773        N777   1.436       .  S
C774        N798   1.436       .  S
C775        N784   1.436       .  S
C776        N791   1.436       .  S
N777        C781   1.366       .  A
N777        C778   1.354       .  A
C778        C779   1.381       .  A
C779        C780   1.372       .  A
C779        H782   1.083       .  S
C780        C781   1.386       .  A
N784        C788   1.366       .  A
N784        C785   1.354       .  A
C785        C809   1.474       .  S
C785        C786   1.381       .  A
C786        C787   1.372       .  A
C786        H789   1.083       .  S
C787        C788   1.386       .  A
N791        C795   1.366       .  A
N791        C792   1.354       .  A
C792        C793   1.381       .  A
C793        C794   1.372       .  A
C793        H796   1.083       .  S
C794        C795   1.386       .  A
N798        C802   1.366       .  A
N798        C799   1.354       .  A
C799        C800   1.381       .  A
C800        C801   1.372       .  A
C800        H803   1.083       .  S
C801        C802   1.386       .  A
C805        N806   1.359       .  A
C805        N810   1.358       .  A
C805        C875   1.474       .  S
N806        C807   1.358       .  A
C807        N808   1.359       .  A
N808        C809   1.358       .  A
C809        N810   1.359       .  A
O811        V819   1.920       .  S
O811        C821   1.274       .  A
O812        V819   1.920       .  S
O812        C822   1.274       .  A
O813        V819   1.920       .  S
O813        C823   1.274       .  A
O814        V819   1.920       .  S
O814        C824   1.274       .  A
O815        V820   1.894       .  S
O815        C824   1.254       .  A
O816        V820   1.894       .  S
O816        C823   1.254       .  A
O817        V820   1.894       .  S
O817        C822   1.254       .  A
O818        V820   1.894       .  S
O818        C821   1.254       .  A
V819        V820   2.035       .  T
C821        N846   1.436       .  S
C822        N825   1.436       .  S
C823        N832   1.436       .  S
C824        N839   1.436       .  S
N825        C829   1.366       .  A
N825        C826   1.354       .  A
C826        C897   1.474       .  S
C826        C827   1.381       .  A
C827        C828   1.372       .  A
C827        H830   1.083       .  S
C828        C829   1.386       .  A
C828        H831   1.083       .  S
C829       C2071   1.497   1_455  S
N832        C836   1.366       .  A
N832        C833   1.354       .  A
C833        C834   1.381       .  A
C834        C835   1.372       .  A
C834        H837   1.083       .  S
C835        C836   1.386       .  A
C835        H838   1.083       .  S
C836       C2078   1.497   1_455  S
N839        C843   1.366       .  A
N839        C840   1.354       .  A
C840        C841   1.381       .  A
C841        C842   1.372       .  A
C841        H844   1.083       .  S
C842        C843   1.386       .  A
C842        H845   1.083       .  S
C843       C2085   1.497   1_455  S
N846        C850   1.366       .  A
N846        C847   1.354       .  A
C847        C848   1.381       .  A
C848        C849   1.372       .  A
C848        H851   1.083       .  S
C849        C850   1.386       .  A
C849        H852   1.083       .  S
C850       C2092   1.497   1_455  S
O853        V861   1.894       .  S
O853        C863   1.254       .  A
O854        V861   1.894       .  S
O854        C864   1.254       .  A
O855        V861   1.894       .  S
O855        C865   1.254       .  A
O856        V861   1.894       .  S
O856        C866   1.254       .  A
O857        V862   1.920       .  S
O857        C866   1.274       .  A
O858        V862   1.920       .  S
O858        C865   1.274       .  A
O859        V862   1.920       .  S
O859        C864   1.274       .  A
O860        V862   1.920       .  S
O860        C863   1.274       .  A
V861        V862   2.035       .  T
C863        N867   1.436       .  S
C864        N888   1.436       .  S
C865        N881   1.436       .  S
C866        N874   1.436       .  S
N867        C871   1.366       .  A
N867        C868   1.354       .  A
C868        C869   1.381       .  A
C869        C870   1.372       .  A
C869        H872   1.083       .  S
C870        C871   1.386       .  A
C870       H2073   1.083       .  S
C871       C2029   1.497       .  S
H873       C2070   1.083   1_455  S
N874        C878   1.366       .  A
N874        C875   1.354       .  A
C875        C876   1.381       .  A
C876        C877   1.372       .  A
C876        H879   1.083       .  S
C877        C878   1.386       .  A
C877       H2080   1.083       .  S
C878       C2036   1.497       .  S
H880       C2077   1.083   1_455  S
N881        C885   1.366       .  A
N881        C882   1.354       .  A
C882        C883   1.381       .  A
C883        C884   1.372       .  A
C883        H886   1.083       .  S
C884        C885   1.386       .  A
C884       H2087   1.083       .  S
C885       C2043   1.497       .  S
H887       C2084   1.083   1_455  S
N888        C892   1.366       .  A
N888        C889   1.354       .  A
C889        C890   1.381       .  A
C890        C891   1.372       .  A
C890        H893   1.083       .  S
C891        C892   1.386       .  A
C891       H2094   1.083       .  S
C892       C2050   1.497       .  S
H894       C2091   1.083   1_455  S
C895        N896   1.358       .  A
C895        N900   1.359       .  A
N896        C897   1.359       .  A
C897        N898   1.358       .  A
N898        C899   1.359       .  A
C899        N900   1.358       .  A
C901        N902   1.359       .  A
C901        N906   1.358       .  A
C901       C1189   1.474       .  S
N902        C903   1.358       .  A
C903        N904   1.359       .  A
C903       C1099   1.474       .  S
N904        C905   1.358       .  A
C905        N906   1.359       .  A
C905       C1015   1.474       .  S
C907        N908   1.358       .  A
C907        N912   1.359       .  A
C907        C959   1.474       .  S
N908        C909   1.359       .  A
C909        N910   1.358       .  A
C909       C1078   1.474       .  S
N910        C911   1.359       .  A
C911        N912   1.358       .  A
C911       C1133   1.474       .  S
C913        N914   1.359       .  A
C913        N918   1.358       .  A
C913       C1182   1.474       .  S
N914        C915   1.358       .  A
C915        N916   1.359       .  A
C915       C1008   1.474       .  S
N916        C917   1.358       .  A
C917        N918   1.359       .  A
C917       C1057   1.474       .  S
C919        N920   1.358       .  A
C919        N924   1.359       .  A
C919       C1140   1.474       .  S
N920        C921   1.359       .  A
C921        N922   1.358       .  A
C921        C994   1.474       .  S
N922        C923   1.359       .  A
C923        N924   1.358       .  A
C923       C1050   1.474       .  S
C925        N926   1.359       .  A
C925        N930   1.358       .  A
C925       C1001   1.474       .  S
N926        C927   1.358       .  A
C927        N928   1.359       .  A
C927       C1092   1.474       .  S
N928        C929   1.358       .  A
C929        N930   1.359       .  A
C929       C1147   1.474       .  S
C931        N932   1.358       .  A
C931        N936   1.359       .  A
C931        C966   1.474       .  S
N932        C933   1.359       .  A
C933        N934   1.358       .  A
C933       C1043   1.474       .  S
N934        C935   1.359       .  A
C935        N936   1.358       .  A
C935       C1168   1.474       .  S
O937        V945   1.920       .  S
O937        C947   1.274       .  A
O938        V945   1.920       .  S
O938        C948   1.274       .  A
O939        V945   1.920       .  S
O939        C949   1.274       .  A
O940        V945   1.920       .  S
O940        C950   1.274       .  A
O941        V946   1.894       .  S
O941        C950   1.254       .  A
O942        V946   1.894       .  S
O942        C949   1.254       .  A
O943        V946   1.894       .  S
O943        C948   1.254       .  A
O944        V946   1.894       .  S
O944        C947   1.254       .  A
V945        V946   2.035       .  T
C947        N972   1.436       .  S
C948        N951   1.436       .  S
C949        N965   1.436       .  S
C950        N958   1.436       .  S
N951        C955   1.366       .  A
N951        C952   1.354       .  A
C952       C1195   1.474       .  S
C952        C953   1.381       .  A
C953        C954   1.372       .  A
C953        H956   1.083       .  S
C954        C955   1.386       .  A
C954        H957   1.083       .  S
N958        C962   1.366       .  A
N958        C959   1.354       .  A
C959        C960   1.381       .  A
C960        C961   1.372       .  A
C960        H963   1.083       .  S
C961        C962   1.386       .  A
C961        H964   1.083       .  S
N965        C969   1.366       .  A
N965        C966   1.354       .  A
C966        C967   1.381       .  A
C967        C968   1.372       .  A
C967        H970   1.083       .  S
C968        C969   1.386       .  A
C968        H971   1.083       .  S
N972        C976   1.366       .  A
N972        C973   1.354       .  A
C973       C1107   1.474       .  S
C973        C974   1.381       .  A
C974        C975   1.372       .  A
C974        H977   1.083       .  S
C975        C976   1.386       .  A
C975        H978   1.083       .  S
O979        V987   1.894       .  S
O979        C989   1.254       .  A
O980        V987   1.894       .  S
O980        C990   1.254       .  A
O981        V987   1.894       .  S
O981        C991   1.254       .  A
O982        V987   1.894       .  S
O982        C992   1.254       .  A
O983        V988   1.920       .  S
O983        C992   1.274       .  A
O984        V988   1.920       .  S
O984        C991   1.274       .  A
O985        V988   1.920       .  S
O985        C990   1.274       .  A
O986        V988   1.920       .  S
O986        C989   1.274       .  A
V987        V988   2.035       .  T
C989        N993   1.436       .  S
C990       N1014   1.436       .  S
C991       N1000   1.436       .  S
C992       N1007   1.436       .  S
N993        C997   1.366       .  A
N993        C994   1.354       .  A
C994        C995   1.381       .  A
C995        C996   1.372       .  A
C995        H998   1.083       .  S
C996        C997   1.386       .  A
N1000      C1004   1.366       .  A
N1000      C1001   1.354       .  A
C1001      C1002   1.381       .  A
C1002      C1003   1.372       .  A
C1002      H1005   1.083       .  S
C1003      C1004   1.386       .  A
N1007      C1011   1.366       .  A
N1007      C1008   1.354       .  A
C1008      C1009   1.381       .  A
C1009      C1010   1.372       .  A
C1009      H1012   1.083       .  S
C1010      C1011   1.386       .  A
N1014      C1018   1.366       .  A
N1014      C1015   1.354       .  A
C1015      C1016   1.381       .  A
C1016      C1017   1.372       .  A
C1016      H1019   1.083       .  S
C1017      C1018   1.386       .  A
O1021      V1029   1.920       .  S
O1021      C1031   1.274       .  A
O1022      V1029   1.920       .  S
O1022      C1032   1.274       .  A
O1023      V1029   1.920       .  S
O1023      C1033   1.274       .  A
O1024      V1029   1.920       .  S
O1024      C1034   1.274       .  A
O1025      V1030   1.894       .  S
O1025      C1034   1.254       .  A
O1026      V1030   1.894       .  S
O1026      C1033   1.254       .  A
O1027      V1030   1.894       .  S
O1027      C1032   1.254       .  A
O1028      V1030   1.894       .  S
O1028      C1031   1.254       .  A
V1029      V1030   2.035       .  T
C1031      N1056   1.436       .  S
C1032      N1035   1.436       .  S
C1033      N1049   1.436       .  S
C1034      N1042   1.436       .  S
N1035      C1039   1.366       .  A
N1035      C1036   1.354       .  A
C1036      C1199   1.474       .  S
C1036      C1037   1.381       .  A
C1037      C1038   1.372       .  A
C1037      H1040   1.083       .  S
C1038      C1039   1.386       .  A
C1038      H1041   1.083       .  S
N1042      C1046   1.366       .  A
N1042      C1043   1.354       .  A
C1043      C1044   1.381       .  A
C1044      C1045   1.372       .  A
C1044      H1047   1.083       .  S
C1045      C1046   1.386       .  A
C1045      H1048   1.083       .  S
N1049      C1053   1.366       .  A
N1049      C1050   1.354       .  A
C1050      C1051   1.381       .  A
C1051      C1052   1.372       .  A
C1051      H1054   1.083       .  S
C1052      C1053   1.386       .  A
C1052      H1055   1.083       .  S
N1056      C1060   1.366       .  A
N1056      C1057   1.354       .  A
C1057      C1058   1.381       .  A
C1058      C1059   1.372       .  A
C1058      H1061   1.083       .  S
C1059      C1060   1.386       .  A
C1059      H1062   1.083       .  S
O1063      V1071   1.894       .  S
O1063      C1073   1.254       .  A
O1064      V1071   1.894       .  S
O1064      C1074   1.254       .  A
O1065      V1071   1.894       .  S
O1065      C1075   1.254       .  A
O1066      V1071   1.894       .  S
O1066      C1076   1.254       .  A
O1067      V1072   1.920       .  S
O1067      C1076   1.274       .  A
O1068      V1072   1.920       .  S
O1068      C1075   1.274       .  A
O1069      V1072   1.920       .  S
O1069      C1074   1.274       .  A
O1070      V1072   1.920       .  S
O1070      C1073   1.274       .  A
V1071      V1072   2.035       .  T
C1073      N1077   1.436       .  S
C1074      N1098   1.436       .  S
C1075      N1084   1.436       .  S
C1076      N1091   1.436       .  S
N1077      C1081   1.366       .  A
N1077      C1078   1.354       .  A
C1078      C1079   1.381       .  A
C1079      C1080   1.372       .  A
C1079      H1082   1.083       .  S
C1080      C1081   1.386       .  A
N1084      C1088   1.366       .  A
N1084      C1085   1.354       .  A
C1085      C1109   1.474       .  S
C1085      C1086   1.381       .  A
C1086      C1087   1.372       .  A
C1086      H1089   1.083       .  S
C1087      C1088   1.386       .  A
N1091      C1095   1.366       .  A
N1091      C1092   1.354       .  A
C1092      C1093   1.381       .  A
C1093      C1094   1.372       .  A
C1093      H1096   1.083       .  S
C1094      C1095   1.386       .  A
N1098      C1102   1.366       .  A
N1098      C1099   1.354       .  A
C1099      C1100   1.381       .  A
C1100      C1101   1.372       .  A
C1100      H1103   1.083       .  S
C1101      C1102   1.386       .  A
C1105      N1106   1.359       .  A
C1105      N1110   1.358       .  A
C1105      C1175   1.474       .  S
N1106      C1107   1.358       .  A
C1107      N1108   1.359       .  A
N1108      C1109   1.358       .  A
C1109      N1110   1.359       .  A
O1111      V1119   1.920       .  S
O1111      C1121   1.274       .  A
O1112      V1119   1.920       .  S
O1112      C1122   1.274       .  A
O1113      V1119   1.920       .  S
O1113      C1123   1.274       .  A
O1114      V1119   1.920       .  S
O1114      C1124   1.274       .  A
O1115      V1120   1.894       .  S
O1115      C1124   1.254       .  A
O1116      V1120   1.894       .  S
O1116      C1123   1.254       .  A
O1117      V1120   1.894       .  S
O1117      C1122   1.254       .  A
O1118      V1120   1.894       .  S
O1118      C1121   1.254       .  A
V1119      V1120   2.035       .  T
C1121      N1146   1.436       .  S
C1122      N1125   1.436       .  S
C1123      N1132   1.436       .  S
C1124      N1139   1.436       .  S
N1125      C1129   1.366       .  A
N1125      C1126   1.354       .  A
C1126      C1197   1.474       .  S
C1126      C1127   1.381       .  A
C1127      C1128   1.372       .  A
C1127      H1130   1.083       .  S
C1128      C1129   1.386       .  A
C1128      H1131   1.083       .  S
C1129      C2371   1.497   1_455  S
N1132      C1136   1.366       .  A
N1132      C1133   1.354       .  A
C1133      C1134   1.381       .  A
C1134      C1135   1.372       .  A
C1134      H1137   1.083       .  S
C1135      C1136   1.386       .  A
C1135      H1138   1.083       .  S
C1136      C2378   1.497   1_455  S
N1139      C1143   1.366       .  A
N1139      C1140   1.354       .  A
C1140      C1141   1.381       .  A
C1141      C1142   1.372       .  A
C1141      H1144   1.083       .  S
C1142      C1143   1.386       .  A
C1142      H1145   1.083       .  S
C1143      C2385   1.497   1_455  S
N1146      C1150   1.366       .  A
N1146      C1147   1.354       .  A
C1147      C1148   1.381       .  A
C1148      C1149   1.372       .  A
C1148      H1151   1.083       .  S
C1149      C1150   1.386       .  A
C1149      H1152   1.083       .  S
C1150      C2392   1.497   1_455  S
O1153      V1161   1.894       .  S
O1153      C1163   1.254       .  A
O1154      V1161   1.894       .  S
O1154      C1164   1.254       .  A
O1155      V1161   1.894       .  S
O1155      C1165   1.254       .  A
O1156      V1161   1.894       .  S
O1156      C1166   1.254       .  A
O1157      V1162   1.920       .  S
O1157      C1166   1.274       .  A
O1158      V1162   1.920       .  S
O1158      C1165   1.274       .  A
O1159      V1162   1.920       .  S
O1159      C1164   1.274       .  A
O1160      V1162   1.920       .  S
O1160      C1163   1.274       .  A
V1161      V1162   2.035       .  T
C1163      N1167   1.436       .  S
C1164      N1188   1.436       .  S
C1165      N1181   1.436       .  S
C1166      N1174   1.436       .  S
N1167      C1171   1.366       .  A
N1167      C1168   1.354       .  A
C1168      C1169   1.381       .  A
C1169      C1170   1.372       .  A
C1169      H1172   1.083       .  S
C1170      C1171   1.386       .  A
C1170      H2373   1.083       .  S
C1171      C2329   1.497       .  S
H1173      C2370   1.083   1_455  S
N1174      C1178   1.366       .  A
N1174      C1175   1.354       .  A
C1175      C1176   1.381       .  A
C1176      C1177   1.372       .  A
C1176      H1179   1.083       .  S
C1177      C1178   1.386       .  A
C1177      H2380   1.083       .  S
C1178      C2336   1.497       .  S
H1180      C2377   1.083   1_455  S
N1181      C1185   1.366       .  A
N1181      C1182   1.354       .  A
C1182      C1183   1.381       .  A
C1183      C1184   1.372       .  A
C1183      H1186   1.083       .  S
C1184      C1185   1.386       .  A
C1184      H2387   1.083       .  S
C1185      C2343   1.497       .  S
H1187      C2384   1.083   1_455  S
N1188      C1192   1.366       .  A
N1188      C1189   1.354       .  A
C1189      C1190   1.381       .  A
C1190      C1191   1.372       .  A
C1190      H1193   1.083       .  S
C1191      C1192   1.386       .  A
C1191      H2394   1.083       .  S
C1192      C2350   1.497       .  S
H1194      C2391   1.083   1_455  S
C1195      N1196   1.358       .  A
C1195      N1200   1.359       .  A
N1196      C1197   1.359       .  A
C1197      N1198   1.358       .  A
N1198      C1199   1.359       .  A
C1199      N1200   1.358       .  A
C1201      N1202   1.359       .  A
C1201      N1206   1.358       .  A
C1201      C1489   1.474       .  S
N1202      C1203   1.358       .  A
C1203      N1204   1.359       .  A
C1203      C1399   1.474       .  S
N1204      C1205   1.358       .  A
C1205      N1206   1.359       .  A
C1205      C1315   1.474       .  S
C1207      N1208   1.358       .  A
C1207      N1212   1.359       .  A
C1207      C1259   1.474       .  S
N1208      C1209   1.359       .  A
C1209      N1210   1.358       .  A
C1209      C1378   1.474       .  S
N1210      C1211   1.359       .  A
C1211      N1212   1.358       .  A
C1211      C1433   1.474       .  S
C1213      N1214   1.359       .  A
C1213      N1218   1.358       .  A
C1213      C1482   1.474       .  S
N1214      C1215   1.358       .  A
C1215      N1216   1.359       .  A
C1215      C1308   1.474       .  S
N1216      C1217   1.358       .  A
C1217      N1218   1.359       .  A
C1217      C1357   1.474       .  S
C1219      N1220   1.358       .  A
C1219      N1224   1.359       .  A
C1219      C1440   1.474       .  S
N1220      C1221   1.359       .  A
C1221      N1222   1.358       .  A
C1221      C1294   1.474       .  S
N1222      C1223   1.359       .  A
C1223      N1224   1.358       .  A
C1223      C1350   1.474       .  S
C1225      N1226   1.359       .  A
C1225      N1230   1.358       .  A
C1225      C1301   1.474       .  S
N1226      C1227   1.358       .  A
C1227      N1228   1.359       .  A
C1227      C1392   1.474       .  S
N1228      C1229   1.358       .  A
C1229      N1230   1.359       .  A
C1229      C1447   1.474       .  S
C1231      N1232   1.358       .  A
C1231      N1236   1.359       .  A
C1231      C1266   1.474       .  S
N1232      C1233   1.359       .  A
C1233      N1234   1.358       .  A
C1233      C1343   1.474       .  S
N1234      C1235   1.359       .  A
C1235      N1236   1.358       .  A
C1235      C1468   1.474       .  S
O1237      V1245   1.920       .  S
O1237      C1247   1.274       .  A
O1238      V1245   1.920       .  S
O1238      C1248   1.274       .  A
O1239      V1245   1.920       .  S
O1239      C1249   1.274       .  A
O1240      V1245   1.920       .  S
O1240      C1250   1.274       .  A
O1241      V1246   1.894       .  S
O1241      C1250   1.254       .  A
O1242      V1246   1.894       .  S
O1242      C1249   1.254       .  A
O1243      V1246   1.894       .  S
O1243      C1248   1.254       .  A
O1244      V1246   1.894       .  S
O1244      C1247   1.254       .  A
V1245      V1246   2.035       .  T
C1247      N1272   1.436       .  S
C1248      N1251   1.436       .  S
C1249      N1265   1.436       .  S
C1250      N1258   1.436       .  S
N1251      C1255   1.366       .  A
N1251      C1252   1.354       .  A
C1252      C1495   1.474       .  S
C1252      C1253   1.381       .  A
C1253      C1254   1.372       .  A
C1253      H1256   1.083       .  S
C1254      C1255   1.386       .  A
C1254      H1257   1.083       .  S
C1255      C1597   1.497   1_554  S
N1258      C1262   1.366       .  A
N1258      C1259   1.354       .  A
C1259      C1260   1.381       .  A
C1260      C1261   1.372       .  A
C1260      H1263   1.083       .  S
C1261      C1262   1.386       .  A
C1261      H1264   1.083       .  S
C1262      C1604   1.497   1_554  S
N1265      C1269   1.366       .  A
N1265      C1266   1.354       .  A
C1266      C1267   1.381       .  A
C1267      C1268   1.372       .  A
C1267      H1270   1.083       .  S
C1268      C1269   1.386       .  A
C1268      H1271   1.083       .  S
C1269      C1611   1.497   1_554  S
N1272      C1276   1.366       .  A
N1272      C1273   1.354       .  A
C1273      C1407   1.474       .  S
C1273      C1274   1.381       .  A
C1274      C1275   1.372       .  A
C1274      H1277   1.083       .  S
C1275      C1276   1.386       .  A
C1275      H1278   1.083       .  S
C1276      C1618   1.497   1_554  S
O1279      V1287   1.894       .  S
O1279      C1289   1.254       .  A
O1280      V1287   1.894       .  S
O1280      C1290   1.254       .  A
O1281      V1287   1.894       .  S
O1281      C1291   1.254       .  A
O1282      V1287   1.894       .  S
O1282      C1292   1.254       .  A
O1283      V1288   1.920       .  S
O1283      C1292   1.274       .  A
O1284      V1288   1.920       .  S
O1284      C1291   1.274       .  A
O1285      V1288   1.920       .  S
O1285      C1290   1.274       .  A
O1286      V1288   1.920       .  S
O1286      C1289   1.274       .  A
V1287      V1288   2.035       .  T
C1289      N1293   1.436       .  S
C1290      N1314   1.436       .  S
C1291      N1300   1.436       .  S
C1292      N1307   1.436       .  S
N1293      C1297   1.366       .  A
N1293      C1294   1.354       .  A
C1294      C1295   1.381       .  A
C1295      C1296   1.372       .  A
C1295      H1298   1.083       .  S
C1296      C1297   1.386       .  A
C1296      H1599   1.083       .  S
C1297      C1555   1.497       .  S
H1299      C1596   1.083   1_554  S
N1300      C1304   1.366       .  A
N1300      C1301   1.354       .  A
C1301      C1302   1.381       .  A
C1302      C1303   1.372       .  A
C1302      H1305   1.083       .  S
C1303      C1304   1.386       .  A
C1303      H1606   1.083       .  S
C1304      C1562   1.497       .  S
H1306      C1603   1.083   1_554  S
N1307      C1311   1.366       .  A
N1307      C1308   1.354       .  A
C1308      C1309   1.381       .  A
C1309      C1310   1.372       .  A
C1309      H1312   1.083       .  S
C1310      C1311   1.386       .  A
C1310      H1613   1.083       .  S
C1311      C1569   1.497       .  S
H1313      C1610   1.083   1_554  S
N1314      C1318   1.366       .  A
N1314      C1315   1.354       .  A
C1315      C1316   1.381       .  A
C1316      C1317   1.372       .  A
C1316      H1319   1.083       .  S
C1317      C1318   1.386       .  A
C1317      H1620   1.083       .  S
C1318      C1576   1.497       .  S
H1320      C1617   1.083   1_554  S
O1321      V1329   1.920       .  S
O1321      C1331   1.274       .  A
O1322      V1329   1.920       .  S
O1322      C1332   1.274       .  A
O1323      V1329   1.920       .  S
O1323      C1333   1.274       .  A
O1324      V1329   1.920       .  S
O1324      C1334   1.274       .  A
O1325      V1330   1.894       .  S
O1325      C1334   1.254       .  A
O1326      V1330   1.894       .  S
O1326      C1333   1.254       .  A
O1327      V1330   1.894       .  S
O1327      C1332   1.254       .  A
O1328      V1330   1.894       .  S
O1328      C1331   1.254       .  A
V1329      V1330   2.035       .  T
C1331      N1356   1.436       .  S
C1332      N1335   1.436       .  S
C1333      N1349   1.436       .  S
C1334      N1342   1.436       .  S
N1335      C1339   1.366       .  A
N1335      C1336   1.354       .  A
C1336      C1499   1.474       .  S
C1336      C1337   1.381       .  A
C1337      C1338   1.372       .  A
C1337      H1340   1.083       .  S
C1338      C1339   1.386       .  A
C1338      H1341   1.083       .  S
C1339      C1981   1.497   1_545  S
N1342      C1346   1.366       .  A
N1342      C1343   1.354       .  A
C1343      C1344   1.381       .  A
C1344      C1345   1.372       .  A
C1344      H1347   1.083       .  S
C1345      C1346   1.386       .  A
C1345      H1348   1.083       .  S
C1346      C1988   1.497   1_545  S
N1349      C1353   1.366       .  A
N1349      C1350   1.354       .  A
C1350      C1351   1.381       .  A
C1351      C1352   1.372       .  A
C1351      H1354   1.083       .  S
C1352      C1353   1.386       .  A
C1352      H1355   1.083       .  S
C1353      C1995   1.497   1_545  S
N1356      C1360   1.366       .  A
N1356      C1357   1.354       .  A
C1357      C1358   1.381       .  A
C1358      C1359   1.372       .  A
C1358      H1361   1.083       .  S
C1359      C1360   1.386       .  A
C1359      H1362   1.083       .  S
C1360      C2002   1.497   1_545  S
O1363      V1371   1.894       .  S
O1363      C1373   1.254       .  A
O1364      V1371   1.894       .  S
O1364      C1374   1.254       .  A
O1365      V1371   1.894       .  S
O1365      C1375   1.254       .  A
O1366      V1371   1.894       .  S
O1366      C1376   1.254       .  A
O1367      V1372   1.920       .  S
O1367      C1376   1.274       .  A
O1368      V1372   1.920       .  S
O1368      C1375   1.274       .  A
O1369      V1372   1.920       .  S
O1369      C1374   1.274       .  A
O1370      V1372   1.920       .  S
O1370      C1373   1.274       .  A
V1371      V1372   2.035       .  T
C1373      N1377   1.436       .  S
C1374      N1398   1.436       .  S
C1375      N1384   1.436       .  S
C1376      N1391   1.436       .  S
N1377      C1381   1.366       .  A
N1377      C1378   1.354       .  A
C1378      C1379   1.381       .  A
C1379      C1380   1.372       .  A
C1379      H1382   1.083       .  S
C1380      C1381   1.386       .  A
C1380      H1983   1.083       .  S
C1381      C1939   1.497       .  S
H1383      C1980   1.083   1_545  S
N1384      C1388   1.366       .  A
N1384      C1385   1.354       .  A
C1385      C1409   1.474       .  S
C1385      C1386   1.381       .  A
C1386      C1387   1.372       .  A
C1386      H1389   1.083       .  S
C1387      C1388   1.386       .  A
C1387      H1990   1.083       .  S
C1388      C1946   1.497       .  S
H1390      C1987   1.083   1_545  S
N1391      C1395   1.366       .  A
N1391      C1392   1.354       .  A
C1392      C1393   1.381       .  A
C1393      C1394   1.372       .  A
C1393      H1396   1.083       .  S
C1394      C1395   1.386       .  A
C1394      H1997   1.083       .  S
C1395      C1953   1.497       .  S
H1397      C1994   1.083   1_545  S
N1398      C1402   1.366       .  A
N1398      C1399   1.354       .  A
C1399      C1400   1.381       .  A
C1400      C1401   1.372       .  A
C1400      H1403   1.083       .  S
C1401      C1402   1.386       .  A
C1401      H2004   1.083       .  S
C1402      C1960   1.497       .  S
H1404      C2001   1.083   1_545  S
C1405      N1406   1.359       .  A
C1405      N1410   1.358       .  A
C1405      C1475   1.474       .  S
N1406      C1407   1.358       .  A
C1407      N1408   1.359       .  A
N1408      C1409   1.358       .  A
C1409      N1410   1.359       .  A
O1411      V1419   1.920       .  S
O1411      C1421   1.274       .  A
O1412      V1419   1.920       .  S
O1412      C1422   1.274       .  A
O1413      V1419   1.920       .  S
O1413      C1423   1.274       .  A
O1414      V1419   1.920       .  S
O1414      C1424   1.274       .  A
O1415      V1420   1.894       .  S
O1415      C1424   1.254       .  A
O1416      V1420   1.894       .  S
O1416      C1423   1.254       .  A
O1417      V1420   1.894       .  S
O1417      C1422   1.254       .  A
O1418      V1420   1.894       .  S
O1418      C1421   1.254       .  A
V1419      V1420   2.035       .  T
C1421      N1446   1.436       .  S
C1422      N1425   1.436       .  S
C1423      N1432   1.436       .  S
C1424      N1439   1.436       .  S
N1425      C1429   1.366       .  A
N1425      C1426   1.354       .  A
C1426      C1497   1.474       .  S
C1426      C1427   1.381       .  A
C1427      C1428   1.372       .  A
C1427      H1430   1.083       .  S
C1428      C1429   1.386       .  A
C1428      H1431   1.083       .  S
N1432      C1436   1.366       .  A
N1432      C1433   1.354       .  A
C1433      C1434   1.381       .  A
C1434      C1435   1.372       .  A
C1434      H1437   1.083       .  S
C1435      C1436   1.386       .  A
C1435      H1438   1.083       .  S
N1439      C1443   1.366       .  A
N1439      C1440   1.354       .  A
C1440      C1441   1.381       .  A
C1441      C1442   1.372       .  A
C1441      H1444   1.083       .  S
C1442      C1443   1.386       .  A
C1442      H1445   1.083       .  S
N1446      C1450   1.366       .  A
N1446      C1447   1.354       .  A
C1447      C1448   1.381       .  A
C1448      C1449   1.372       .  A
C1448      H1451   1.083       .  S
C1449      C1450   1.386       .  A
C1449      H1452   1.083       .  S
O1453      V1461   1.894       .  S
O1453      C1463   1.254       .  A
O1454      V1461   1.894       .  S
O1454      C1464   1.254       .  A
O1455      V1461   1.894       .  S
O1455      C1465   1.254       .  A
O1456      V1461   1.894       .  S
O1456      C1466   1.254       .  A
O1457      V1462   1.920       .  S
O1457      C1466   1.274       .  A
O1458      V1462   1.920       .  S
O1458      C1465   1.274       .  A
O1459      V1462   1.920       .  S
O1459      C1464   1.274       .  A
O1460      V1462   1.920       .  S
O1460      C1463   1.274       .  A
V1461      V1462   2.035       .  T
C1463      N1467   1.436       .  S
C1464      N1488   1.436       .  S
C1465      N1481   1.436       .  S
C1466      N1474   1.436       .  S
N1467      C1471   1.366       .  A
N1467      C1468   1.354       .  A
C1468      C1469   1.381       .  A
C1469      C1470   1.372       .  A
C1469      H1472   1.083       .  S
C1470      C1471   1.386       .  A
N1474      C1478   1.366       .  A
N1474      C1475   1.354       .  A
C1475      C1476   1.381       .  A
C1476      C1477   1.372       .  A
C1476      H1479   1.083       .  S
C1477      C1478   1.386       .  A
N1481      C1485   1.366       .  A
N1481      C1482   1.354       .  A
C1482      C1483   1.381       .  A
C1483      C1484   1.372       .  A
C1483      H1486   1.083       .  S
C1484      C1485   1.386       .  A
N1488      C1492   1.366       .  A
N1488      C1489   1.354       .  A
C1489      C1490   1.381       .  A
C1490      C1491   1.372       .  A
C1490      H1493   1.083       .  S
C1491      C1492   1.386       .  A
C1495      N1496   1.358       .  A
C1495      N1500   1.359       .  A
N1496      C1497   1.359       .  A
C1497      N1498   1.358       .  A
N1498      C1499   1.359       .  A
C1499      N1500   1.358       .  A
C1501      N1502   1.359       .  A
C1501      N1506   1.358       .  A
C1501      C1789   1.474       .  S
N1502      C1503   1.358       .  A
C1503      N1504   1.359       .  A
C1503      C1699   1.474       .  S
N1504      C1505   1.358       .  A
C1505      N1506   1.359       .  A
C1505      C1615   1.474       .  S
C1507      N1508   1.358       .  A
C1507      N1512   1.359       .  A
C1507      C1559   1.474       .  S
N1508      C1509   1.359       .  A
C1509      N1510   1.358       .  A
C1509      C1678   1.474       .  S
N1510      C1511   1.359       .  A
C1511      N1512   1.358       .  A
C1511      C1733   1.474       .  S
C1513      N1514   1.359       .  A
C1513      N1518   1.358       .  A
C1513      C1782   1.474       .  S
N1514      C1515   1.358       .  A
C1515      N1516   1.359       .  A
C1515      C1608   1.474       .  S
N1516      C1517   1.358       .  A
C1517      N1518   1.359       .  A
C1517      C1657   1.474       .  S
C1519      N1520   1.358       .  A
C1519      N1524   1.359       .  A
C1519      C1740   1.474       .  S
N1520      C1521   1.359       .  A
C1521      N1522   1.358       .  A
C1521      C1594   1.474       .  S
N1522      C1523   1.359       .  A
C1523      N1524   1.358       .  A
C1523      C1650   1.474       .  S
C1525      N1526   1.359       .  A
C1525      N1530   1.358       .  A
C1525      C1601   1.474       .  S
N1526      C1527   1.358       .  A
C1527      N1528   1.359       .  A
C1527      C1692   1.474       .  S
N1528      C1529   1.358       .  A
C1529      N1530   1.359       .  A
C1529      C1747   1.474       .  S
C1531      N1532   1.358       .  A
C1531      N1536   1.359       .  A
C1531      C1566   1.474       .  S
N1532      C1533   1.359       .  A
C1533      N1534   1.358       .  A
C1533      C1643   1.474       .  S
N1534      C1535   1.359       .  A
C1535      N1536   1.358       .  A
C1535      C1768   1.474       .  S
O1537      V1545   1.920       .  S
O1537      C1547   1.274       .  A
O1538      V1545   1.920       .  S
O1538      C1548   1.274       .  A
O1539      V1545   1.920       .  S
O1539      C1549   1.274       .  A
O1540      V1545   1.920       .  S
O1540      C1550   1.274       .  A
O1541      V1546   1.894       .  S
O1541      C1550   1.254       .  A
O1542      V1546   1.894       .  S
O1542      C1549   1.254       .  A
O1543      V1546   1.894       .  S
O1543      C1548   1.254       .  A
O1544      V1546   1.894       .  S
O1544      C1547   1.254       .  A
V1545      V1546   2.035       .  T
C1547      N1572   1.436       .  S
C1548      N1551   1.436       .  S
C1549      N1565   1.436       .  S
C1550      N1558   1.436       .  S
N1551      C1555   1.366       .  A
N1551      C1552   1.354       .  A
C1552      C1795   1.474       .  S
C1552      C1553   1.381       .  A
C1553      C1554   1.372       .  A
C1553      H1556   1.083       .  S
C1554      C1555   1.386       .  A
C1554      H1557   1.083       .  S
N1558      C1562   1.366       .  A
N1558      C1559   1.354       .  A
C1559      C1560   1.381       .  A
C1560      C1561   1.372       .  A
C1560      H1563   1.083       .  S
C1561      C1562   1.386       .  A
C1561      H1564   1.083       .  S
N1565      C1569   1.366       .  A
N1565      C1566   1.354       .  A
C1566      C1567   1.381       .  A
C1567      C1568   1.372       .  A
C1567      H1570   1.083       .  S
C1568      C1569   1.386       .  A
C1568      H1571   1.083       .  S
N1572      C1576   1.366       .  A
N1572      C1573   1.354       .  A
C1573      C1707   1.474       .  S
C1573      C1574   1.381       .  A
C1574      C1575   1.372       .  A
C1574      H1577   1.083       .  S
C1575      C1576   1.386       .  A
C1575      H1578   1.083       .  S
O1579      V1587   1.894       .  S
O1579      C1589   1.254       .  A
O1580      V1587   1.894       .  S
O1580      C1590   1.254       .  A
O1581      V1587   1.894       .  S
O1581      C1591   1.254       .  A
O1582      V1587   1.894       .  S
O1582      C1592   1.254       .  A
O1583      V1588   1.920       .  S
O1583      C1592   1.274       .  A
O1584      V1588   1.920       .  S
O1584      C1591   1.274       .  A
O1585      V1588   1.920       .  S
O1585      C1590   1.274       .  A
O1586      V1588   1.920       .  S
O1586      C1589   1.274       .  A
V1587      V1588   2.035       .  T
C1589      N1593   1.436       .  S
C1590      N1614   1.436       .  S
C1591      N1600   1.436       .  S
C1592      N1607   1.436       .  S
N1593      C1597   1.366       .  A
N1593      C1594   1.354       .  A
C1594      C1595   1.381       .  A
C1595      C1596   1.372       .  A
C1595      H1598   1.083       .  S
C1596      C1597   1.386       .  A
N1600      C1604   1.366       .  A
N1600      C1601   1.354       .  A
C1601      C1602   1.381       .  A
C1602      C1603   1.372       .  A
C1602      H1605   1.083       .  S
C1603      C1604   1.386       .  A
N1607      C1611   1.366       .  A
N1607      C1608   1.354       .  A
C1608      C1609   1.381       .  A
C1609      C1610   1.372       .  A
C1609      H1612   1.083       .  S
C1610      C1611   1.386       .  A
N1614      C1618   1.366       .  A
N1614      C1615   1.354       .  A
C1615      C1616   1.381       .  A
C1616      C1617   1.372       .  A
C1616      H1619   1.083       .  S
C1617      C1618   1.386       .  A
O1621      V1629   1.920       .  S
O1621      C1631   1.274       .  A
O1622      V1629   1.920       .  S
O1622      C1632   1.274       .  A
O1623      V1629   1.920       .  S
O1623      C1633   1.274       .  A
O1624      V1629   1.920       .  S
O1624      C1634   1.274       .  A
O1625      V1630   1.894       .  S
O1625      C1634   1.254       .  A
O1626      V1630   1.894       .  S
O1626      C1633   1.254       .  A
O1627      V1630   1.894       .  S
O1627      C1632   1.254       .  A
O1628      V1630   1.894       .  S
O1628      C1631   1.254       .  A
V1629      V1630   2.035       .  T
C1631      N1656   1.436       .  S
C1632      N1635   1.436       .  S
C1633      N1649   1.436       .  S
C1634      N1642   1.436       .  S
N1635      C1639   1.366       .  A
N1635      C1636   1.354       .  A
C1636      C1799   1.474       .  S
C1636      C1637   1.381       .  A
C1637      C1638   1.372       .  A
C1637      H1640   1.083       .  S
C1638      C1639   1.386       .  A
C1638      H1641   1.083       .  S
C1639      C2281   1.497   1_545  S
N1642      C1646   1.366       .  A
N1642      C1643   1.354       .  A
C1643      C1644   1.381       .  A
C1644      C1645   1.372       .  A
C1644      H1647   1.083       .  S
C1645      C1646   1.386       .  A
C1645      H1648   1.083       .  S
C1646      C2288   1.497   1_545  S
N1649      C1653   1.366       .  A
N1649      C1650   1.354       .  A
C1650      C1651   1.381       .  A
C1651      C1652   1.372       .  A
C1651      H1654   1.083       .  S
C1652      C1653   1.386       .  A
C1652      H1655   1.083       .  S
C1653      C2295   1.497   1_545  S
N1656      C1660   1.366       .  A
N1656      C1657   1.354       .  A
C1657      C1658   1.381       .  A
C1658      C1659   1.372       .  A
C1658      H1661   1.083       .  S
C1659      C1660   1.386       .  A
C1659      H1662   1.083       .  S
C1660      C2302   1.497   1_545  S
O1663      V1671   1.894       .  S
O1663      C1673   1.254       .  A
O1664      V1671   1.894       .  S
O1664      C1674   1.254       .  A
O1665      V1671   1.894       .  S
O1665      C1675   1.254       .  A
O1666      V1671   1.894       .  S
O1666      C1676   1.254       .  A
O1667      V1672   1.920       .  S
O1667      C1676   1.274       .  A
O1668      V1672   1.920       .  S
O1668      C1675   1.274       .  A
O1669      V1672   1.920       .  S
O1669      C1674   1.274       .  A
O1670      V1672   1.920       .  S
O1670      C1673   1.274       .  A
V1671      V1672   2.035       .  T
C1673      N1677   1.436       .  S
C1674      N1698   1.436       .  S
C1675      N1684   1.436       .  S
C1676      N1691   1.436       .  S
N1677      C1681   1.366       .  A
N1677      C1678   1.354       .  A
C1678      C1679   1.381       .  A
C1679      C1680   1.372       .  A
C1679      H1682   1.083       .  S
C1680      C1681   1.386       .  A
C1680      H2283   1.083       .  S
C1681      C2239   1.497       .  S
H1683      C2280   1.083   1_545  S
N1684      C1688   1.366       .  A
N1684      C1685   1.354       .  A
C1685      C1709   1.474       .  S
C1685      C1686   1.381       .  A
C1686      C1687   1.372       .  A
C1686      H1689   1.083       .  S
C1687      C1688   1.386       .  A
C1687      H2290   1.083       .  S
C1688      C2246   1.497       .  S
H1690      C2287   1.083   1_545  S
N1691      C1695   1.366       .  A
N1691      C1692   1.354       .  A
C1692      C1693   1.381       .  A
C1693      C1694   1.372       .  A
C1693      H1696   1.083       .  S
C1694      C1695   1.386       .  A
C1694      H2297   1.083       .  S
C1695      C2253   1.497       .  S
H1697      C2294   1.083   1_545  S
N1698      C1702   1.366       .  A
N1698      C1699   1.354       .  A
C1699      C1700   1.381       .  A
C1700      C1701   1.372       .  A
C1700      H1703   1.083       .  S
C1701      C1702   1.386       .  A
C1701      H2304   1.083       .  S
C1702      C2260   1.497       .  S
H1704      C2301   1.083   1_545  S
C1705      N1706   1.359       .  A
C1705      N1710   1.358       .  A
C1705      C1775   1.474       .  S
N1706      C1707   1.358       .  A
C1707      N1708   1.359       .  A
N1708      C1709   1.358       .  A
C1709      N1710   1.359       .  A
O1711      V1719   1.920       .  S
O1711      C1721   1.274       .  A
O1712      V1719   1.920       .  S
O1712      C1722   1.274       .  A
O1713      V1719   1.920       .  S
O1713      C1723   1.274       .  A
O1714      V1719   1.920       .  S
O1714      C1724   1.274       .  A
O1715      V1720   1.894       .  S
O1715      C1724   1.254       .  A
O1716      V1720   1.894       .  S
O1716      C1723   1.254       .  A
O1717      V1720   1.894       .  S
O1717      C1722   1.254       .  A
O1718      V1720   1.894       .  S
O1718      C1721   1.254       .  A
V1719      V1720   2.035       .  T
C1721      N1746   1.436       .  S
C1722      N1725   1.436       .  S
C1723      N1732   1.436       .  S
C1724      N1739   1.436       .  S
N1725      C1729   1.366       .  A
N1725      C1726   1.354       .  A
C1726      C1797   1.474       .  S
C1726      C1727   1.381       .  A
C1727      C1728   1.372       .  A
C1727      H1730   1.083       .  S
C1728      C1729   1.386       .  A
C1728      H1731   1.083       .  S
N1732      C1736   1.366       .  A
N1732      C1733   1.354       .  A
C1733      C1734   1.381       .  A
C1734      C1735   1.372       .  A
C1734      H1737   1.083       .  S
C1735      C1736   1.386       .  A
C1735      H1738   1.083       .  S
N1739      C1743   1.366       .  A
N1739      C1740   1.354       .  A
C1740      C1741   1.381       .  A
C1741      C1742   1.372       .  A
C1741      H1744   1.083       .  S
C1742      C1743   1.386       .  A
C1742      H1745   1.083       .  S
N1746      C1750   1.366       .  A
N1746      C1747   1.354       .  A
C1747      C1748   1.381       .  A
C1748      C1749   1.372       .  A
C1748      H1751   1.083       .  S
C1749      C1750   1.386       .  A
C1749      H1752   1.083       .  S
O1753      V1761   1.894       .  S
O1753      C1763   1.254       .  A
O1754      V1761   1.894       .  S
O1754      C1764   1.254       .  A
O1755      V1761   1.894       .  S
O1755      C1765   1.254       .  A
O1756      V1761   1.894       .  S
O1756      C1766   1.254       .  A
O1757      V1762   1.920       .  S
O1757      C1766   1.274       .  A
O1758      V1762   1.920       .  S
O1758      C1765   1.274       .  A
O1759      V1762   1.920       .  S
O1759      C1764   1.274       .  A
O1760      V1762   1.920       .  S
O1760      C1763   1.274       .  A
V1761      V1762   2.035       .  T
C1763      N1767   1.436       .  S
C1764      N1788   1.436       .  S
C1765      N1781   1.436       .  S
C1766      N1774   1.436       .  S
N1767      C1771   1.366       .  A
N1767      C1768   1.354       .  A
C1768      C1769   1.381       .  A
C1769      C1770   1.372       .  A
C1769      H1772   1.083       .  S
C1770      C1771   1.386       .  A
N1774      C1778   1.366       .  A
N1774      C1775   1.354       .  A
C1775      C1776   1.381       .  A
C1776      C1777   1.372       .  A
C1776      H1779   1.083       .  S
C1777      C1778   1.386       .  A
N1781      C1785   1.366       .  A
N1781      C1782   1.354       .  A
C1782      C1783   1.381       .  A
C1783      C1784   1.372       .  A
C1783      H1786   1.083       .  S
C1784      C1785   1.386       .  A
N1788      C1792   1.366       .  A
N1788      C1789   1.354       .  A
C1789      C1790   1.381       .  A
C1790      C1791   1.372       .  A
C1790      H1793   1.083       .  S
C1791      C1792   1.386       .  A
C1795      N1796   1.358       .  A
C1795      N1800   1.359       .  A
N1796      C1797   1.359       .  A
C1797      N1798   1.358       .  A
N1798      C1799   1.359       .  A
C1799      N1800   1.358       .  A
C1801      N1802   1.359       .  A
C1801      N1806   1.358       .  A
C1801      C2089   1.474       .  S
N1802      C1803   1.358       .  A
C1803      N1804   1.359       .  A
C1803      C1999   1.474       .  S
N1804      C1805   1.358       .  A
C1805      N1806   1.359       .  A
C1805      C1915   1.474       .  S
C1807      N1808   1.358       .  A
C1807      N1812   1.359       .  A
C1807      C1859   1.474       .  S
N1808      C1809   1.359       .  A
C1809      N1810   1.358       .  A
C1809      C1978   1.474       .  S
N1810      C1811   1.359       .  A
C1811      N1812   1.358       .  A
C1811      C2033   1.474       .  S
C1813      N1814   1.359       .  A
C1813      N1818   1.358       .  A
C1813      C2082   1.474       .  S
N1814      C1815   1.358       .  A
C1815      N1816   1.359       .  A
C1815      C1908   1.474       .  S
N1816      C1817   1.358       .  A
C1817      N1818   1.359       .  A
C1817      C1957   1.474       .  S
C1819      N1820   1.358       .  A
C1819      N1824   1.359       .  A
C1819      C2040   1.474       .  S
N1820      C1821   1.359       .  A
C1821      N1822   1.358       .  A
C1821      C1894   1.474       .  S
N1822      C1823   1.359       .  A
C1823      N1824   1.358       .  A
C1823      C1950   1.474       .  S
C1825      N1826   1.359       .  A
C1825      N1830   1.358       .  A
C1825      C1901   1.474       .  S
N1826      C1827   1.358       .  A
C1827      N1828   1.359       .  A
C1827      C1992   1.474       .  S
N1828      C1829   1.358       .  A
C1829      N1830   1.359       .  A
C1829      C2047   1.474       .  S
C1831      N1832   1.358       .  A
C1831      N1836   1.359       .  A
C1831      C1866   1.474       .  S
N1832      C1833   1.359       .  A
C1833      N1834   1.358       .  A
C1833      C1943   1.474       .  S
N1834      C1835   1.359       .  A
C1835      N1836   1.358       .  A
C1835      C2068   1.474       .  S
O1837      V1845   1.920       .  S
O1837      C1847   1.274       .  A
O1838      V1845   1.920       .  S
O1838      C1848   1.274       .  A
O1839      V1845   1.920       .  S
O1839      C1849   1.274       .  A
O1840      V1845   1.920       .  S
O1840      C1850   1.274       .  A
O1841      V1846   1.894       .  S
O1841      C1850   1.254       .  A
O1842      V1846   1.894       .  S
O1842      C1849   1.254       .  A
O1843      V1846   1.894       .  S
O1843      C1848   1.254       .  A
O1844      V1846   1.894       .  S
O1844      C1847   1.254       .  A
V1845      V1846   2.035       .  T
C1847      N1872   1.436       .  S
C1848      N1851   1.436       .  S
C1849      N1865   1.436       .  S
C1850      N1858   1.436       .  S
N1851      C1855   1.366       .  A
N1851      C1852   1.354       .  A
C1852      C2095   1.474       .  S
C1852      C1853   1.381       .  A
C1853      C1854   1.372       .  A
C1853      H1856   1.083       .  S
C1854      C1855   1.386       .  A
C1854      H1857   1.083       .  S
C1855      C2197   1.497   1_554  S
N1858      C1862   1.366       .  A
N1858      C1859   1.354       .  A
C1859      C1860   1.381       .  A
C1860      C1861   1.372       .  A
C1860      H1863   1.083       .  S
C1861      C1862   1.386       .  A
C1861      H1864   1.083       .  S
C1862      C2204   1.497   1_554  S
N1865      C1869   1.366       .  A
N1865      C1866   1.354       .  A
C1866      C1867   1.381       .  A
C1867      C1868   1.372       .  A
C1867      H1870   1.083       .  S
C1868      C1869   1.386       .  A
C1868      H1871   1.083       .  S
C1869      C2211   1.497   1_554  S
N1872      C1876   1.366       .  A
N1872      C1873   1.354       .  A
C1873      C2007   1.474       .  S
C1873      C1874   1.381       .  A
C1874      C1875   1.372       .  A
C1874      H1877   1.083       .  S
C1875      C1876   1.386       .  A
C1875      H1878   1.083       .  S
C1876      C2218   1.497   1_554  S
O1879      V1887   1.894       .  S
O1879      C1889   1.254       .  A
O1880      V1887   1.894       .  S
O1880      C1890   1.254       .  A
O1881      V1887   1.894       .  S
O1881      C1891   1.254       .  A
O1882      V1887   1.894       .  S
O1882      C1892   1.254       .  A
O1883      V1888   1.920       .  S
O1883      C1892   1.274       .  A
O1884      V1888   1.920       .  S
O1884      C1891   1.274       .  A
O1885      V1888   1.920       .  S
O1885      C1890   1.274       .  A
O1886      V1888   1.920       .  S
O1886      C1889   1.274       .  A
V1887      V1888   2.035       .  T
C1889      N1893   1.436       .  S
C1890      N1914   1.436       .  S
C1891      N1900   1.436       .  S
C1892      N1907   1.436       .  S
N1893      C1897   1.366       .  A
N1893      C1894   1.354       .  A
C1894      C1895   1.381       .  A
C1895      C1896   1.372       .  A
C1895      H1898   1.083       .  S
C1896      C1897   1.386       .  A
C1896      H2199   1.083       .  S
C1897      C2155   1.497       .  S
H1899      C2196   1.083   1_554  S
N1900      C1904   1.366       .  A
N1900      C1901   1.354       .  A
C1901      C1902   1.381       .  A
C1902      C1903   1.372       .  A
C1902      H1905   1.083       .  S
C1903      C1904   1.386       .  A
C1903      H2206   1.083       .  S
C1904      C2162   1.497       .  S
H1906      C2203   1.083   1_554  S
N1907      C1911   1.366       .  A
N1907      C1908   1.354       .  A
C1908      C1909   1.381       .  A
C1909      C1910   1.372       .  A
C1909      H1912   1.083       .  S
C1910      C1911   1.386       .  A
C1910      H2213   1.083       .  S
C1911      C2169   1.497       .  S
H1913      C2210   1.083   1_554  S
N1914      C1918   1.366       .  A
N1914      C1915   1.354       .  A
C1915      C1916   1.381       .  A
C1916      C1917   1.372       .  A
C1916      H1919   1.083       .  S
C1917      C1918   1.386       .  A
C1917      H2220   1.083       .  S
C1918      C2176   1.497       .  S
H1920      C2217   1.083   1_554  S
O1921      V1929   1.920       .  S
O1921      C1931   1.274       .  A
O1922      V1929   1.920       .  S
O1922      C1932   1.274       .  A
O1923      V1929   1.920       .  S
O1923      C1933   1.274       .  A
O1924      V1929   1.920       .  S
O1924      C1934   1.274       .  A
O1925      V1930   1.894       .  S
O1925      C1934   1.254       .  A
O1926      V1930   1.894       .  S
O1926      C1933   1.254       .  A
O1927      V1930   1.894       .  S
O1927      C1932   1.254       .  A
O1928      V1930   1.894       .  S
O1928      C1931   1.254       .  A
V1929      V1930   2.035       .  T
C1931      N1956   1.436       .  S
C1932      N1935   1.436       .  S
C1933      N1949   1.436       .  S
C1934      N1942   1.436       .  S
N1935      C1939   1.366       .  A
N1935      C1936   1.354       .  A
C1936      C2099   1.474       .  S
C1936      C1937   1.381       .  A
C1937      C1938   1.372       .  A
C1937      H1940   1.083       .  S
C1938      C1939   1.386       .  A
C1938      H1941   1.083       .  S
N1942      C1946   1.366       .  A
N1942      C1943   1.354       .  A
C1943      C1944   1.381       .  A
C1944      C1945   1.372       .  A
C1944      H1947   1.083       .  S
C1945      C1946   1.386       .  A
C1945      H1948   1.083       .  S
N1949      C1953   1.366       .  A
N1949      C1950   1.354       .  A
C1950      C1951   1.381       .  A
C1951      C1952   1.372       .  A
C1951      H1954   1.083       .  S
C1952      C1953   1.386       .  A
C1952      H1955   1.083       .  S
N1956      C1960   1.366       .  A
N1956      C1957   1.354       .  A
C1957      C1958   1.381       .  A
C1958      C1959   1.372       .  A
C1958      H1961   1.083       .  S
C1959      C1960   1.386       .  A
C1959      H1962   1.083       .  S
O1963      V1971   1.894       .  S
O1963      C1973   1.254       .  A
O1964      V1971   1.894       .  S
O1964      C1974   1.254       .  A
O1965      V1971   1.894       .  S
O1965      C1975   1.254       .  A
O1966      V1971   1.894       .  S
O1966      C1976   1.254       .  A
O1967      V1972   1.920       .  S
O1967      C1976   1.274       .  A
O1968      V1972   1.920       .  S
O1968      C1975   1.274       .  A
O1969      V1972   1.920       .  S
O1969      C1974   1.274       .  A
O1970      V1972   1.920       .  S
O1970      C1973   1.274       .  A
V1971      V1972   2.035       .  T
C1973      N1977   1.436       .  S
C1974      N1998   1.436       .  S
C1975      N1984   1.436       .  S
C1976      N1991   1.436       .  S
N1977      C1981   1.366       .  A
N1977      C1978   1.354       .  A
C1978      C1979   1.381       .  A
C1979      C1980   1.372       .  A
C1979      H1982   1.083       .  S
C1980      C1981   1.386       .  A
N1984      C1988   1.366       .  A
N1984      C1985   1.354       .  A
C1985      C2009   1.474       .  S
C1985      C1986   1.381       .  A
C1986      C1987   1.372       .  A
C1986      H1989   1.083       .  S
C1987      C1988   1.386       .  A
N1991      C1995   1.366       .  A
N1991      C1992   1.354       .  A
C1992      C1993   1.381       .  A
C1993      C1994   1.372       .  A
C1993      H1996   1.083       .  S
C1994      C1995   1.386       .  A
N1998      C2002   1.366       .  A
N1998      C1999   1.354       .  A
C1999      C2000   1.381       .  A
C2000      C2001   1.372       .  A
C2000      H2003   1.083       .  S
C2001      C2002   1.386       .  A
C2005      N2006   1.359       .  A
C2005      N2010   1.358       .  A
C2005      C2075   1.474       .  S
N2006      C2007   1.358       .  A
C2007      N2008   1.359       .  A
N2008      C2009   1.358       .  A
C2009      N2010   1.359       .  A
O2011      V2019   1.920       .  S
O2011      C2021   1.274       .  A
O2012      V2019   1.920       .  S
O2012      C2022   1.274       .  A
O2013      V2019   1.920       .  S
O2013      C2023   1.274       .  A
O2014      V2019   1.920       .  S
O2014      C2024   1.274       .  A
O2015      V2020   1.894       .  S
O2015      C2024   1.254       .  A
O2016      V2020   1.894       .  S
O2016      C2023   1.254       .  A
O2017      V2020   1.894       .  S
O2017      C2022   1.254       .  A
O2018      V2020   1.894       .  S
O2018      C2021   1.254       .  A
V2019      V2020   2.035       .  T
C2021      N2046   1.436       .  S
C2022      N2025   1.436       .  S
C2023      N2032   1.436       .  S
C2024      N2039   1.436       .  S
N2025      C2029   1.366       .  A
N2025      C2026   1.354       .  A
C2026      C2097   1.474       .  S
C2026      C2027   1.381       .  A
C2027      C2028   1.372       .  A
C2027      H2030   1.083       .  S
C2028      C2029   1.386       .  A
C2028      H2031   1.083       .  S
N2032      C2036   1.366       .  A
N2032      C2033   1.354       .  A
C2033      C2034   1.381       .  A
C2034      C2035   1.372       .  A
C2034      H2037   1.083       .  S
C2035      C2036   1.386       .  A
C2035      H2038   1.083       .  S
N2039      C2043   1.366       .  A
N2039      C2040   1.354       .  A
C2040      C2041   1.381       .  A
C2041      C2042   1.372       .  A
C2041      H2044   1.083       .  S
C2042      C2043   1.386       .  A
C2042      H2045   1.083       .  S
N2046      C2050   1.366       .  A
N2046      C2047   1.354       .  A
C2047      C2048   1.381       .  A
C2048      C2049   1.372       .  A
C2048      H2051   1.083       .  S
C2049      C2050   1.386       .  A
C2049      H2052   1.083       .  S
O2053      V2061   1.894       .  S
O2053      C2063   1.254       .  A
O2054      V2061   1.894       .  S
O2054      C2064   1.254       .  A
O2055      V2061   1.894       .  S
O2055      C2065   1.254       .  A
O2056      V2061   1.894       .  S
O2056      C2066   1.254       .  A
O2057      V2062   1.920       .  S
O2057      C2066   1.274       .  A
O2058      V2062   1.920       .  S
O2058      C2065   1.274       .  A
O2059      V2062   1.920       .  S
O2059      C2064   1.274       .  A
O2060      V2062   1.920       .  S
O2060      C2063   1.274       .  A
V2061      V2062   2.035       .  T
C2063      N2067   1.436       .  S
C2064      N2088   1.436       .  S
C2065      N2081   1.436       .  S
C2066      N2074   1.436       .  S
N2067      C2071   1.366       .  A
N2067      C2068   1.354       .  A
C2068      C2069   1.381       .  A
C2069      C2070   1.372       .  A
C2069      H2072   1.083       .  S
C2070      C2071   1.386       .  A
N2074      C2078   1.366       .  A
N2074      C2075   1.354       .  A
C2075      C2076   1.381       .  A
C2076      C2077   1.372       .  A
C2076      H2079   1.083       .  S
C2077      C2078   1.386       .  A
N2081      C2085   1.366       .  A
N2081      C2082   1.354       .  A
C2082      C2083   1.381       .  A
C2083      C2084   1.372       .  A
C2083      H2086   1.083       .  S
C2084      C2085   1.386       .  A
N2088      C2092   1.366       .  A
N2088      C2089   1.354       .  A
C2089      C2090   1.381       .  A
C2090      C2091   1.372       .  A
C2090      H2093   1.083       .  S
C2091      C2092   1.386       .  A
C2095      N2096   1.358       .  A
C2095      N2100   1.359       .  A
N2096      C2097   1.359       .  A
C2097      N2098   1.358       .  A
N2098      C2099   1.359       .  A
C2099      N2100   1.358       .  A
C2101      N2102   1.359       .  A
C2101      N2106   1.358       .  A
C2101      C2389   1.474       .  S
N2102      C2103   1.358       .  A
C2103      N2104   1.359       .  A
C2103      C2299   1.474       .  S
N2104      C2105   1.358       .  A
C2105      N2106   1.359       .  A
C2105      C2215   1.474       .  S
C2107      N2108   1.358       .  A
C2107      N2112   1.359       .  A
C2107      C2159   1.474       .  S
N2108      C2109   1.359       .  A
C2109      N2110   1.358       .  A
C2109      C2278   1.474       .  S
N2110      C2111   1.359       .  A
C2111      N2112   1.358       .  A
C2111      C2333   1.474       .  S
C2113      N2114   1.359       .  A
C2113      N2118   1.358       .  A
C2113      C2382   1.474       .  S
N2114      C2115   1.358       .  A
C2115      N2116   1.359       .  A
C2115      C2208   1.474       .  S
N2116      C2117   1.358       .  A
C2117      N2118   1.359       .  A
C2117      C2257   1.474       .  S
C2119      N2120   1.358       .  A
C2119      N2124   1.359       .  A
C2119      C2340   1.474       .  S
N2120      C2121   1.359       .  A
C2121      N2122   1.358       .  A
C2121      C2194   1.474       .  S
N2122      C2123   1.359       .  A
C2123      N2124   1.358       .  A
C2123      C2250   1.474       .  S
C2125      N2126   1.359       .  A
C2125      N2130   1.358       .  A
C2125      C2201   1.474       .  S
N2126      C2127   1.358       .  A
C2127      N2128   1.359       .  A
C2127      C2292   1.474       .  S
N2128      C2129   1.358       .  A
C2129      N2130   1.359       .  A
C2129      C2347   1.474       .  S
C2131      N2132   1.358       .  A
C2131      N2136   1.359       .  A
C2131      C2166   1.474       .  S
N2132      C2133   1.359       .  A
C2133      N2134   1.358       .  A
C2133      C2243   1.474       .  S
N2134      C2135   1.359       .  A
C2135      N2136   1.358       .  A
C2135      C2368   1.474       .  S
O2137      V2145   1.920       .  S
O2137      C2147   1.274       .  A
O2138      V2145   1.920       .  S
O2138      C2148   1.274       .  A
O2139      V2145   1.920       .  S
O2139      C2149   1.274       .  A
O2140      V2145   1.920       .  S
O2140      C2150   1.274       .  A
O2141      V2146   1.894       .  S
O2141      C2150   1.254       .  A
O2142      V2146   1.894       .  S
O2142      C2149   1.254       .  A
O2143      V2146   1.894       .  S
O2143      C2148   1.254       .  A
O2144      V2146   1.894       .  S
O2144      C2147   1.254       .  A
V2145      V2146   2.035       .  T
C2147      N2172   1.436       .  S
C2148      N2151   1.436       .  S
C2149      N2165   1.436       .  S
C2150      N2158   1.436       .  S
N2151      C2155   1.366       .  A
N2151      C2152   1.354       .  A
C2152      C2395   1.474       .  S
C2152      C2153   1.381       .  A
C2153      C2154   1.372       .  A
C2153      H2156   1.083       .  S
C2154      C2155   1.386       .  A
C2154      H2157   1.083       .  S
N2158      C2162   1.366       .  A
N2158      C2159   1.354       .  A
C2159      C2160   1.381       .  A
C2160      C2161   1.372       .  A
C2160      H2163   1.083       .  S
C2161      C2162   1.386       .  A
C2161      H2164   1.083       .  S
N2165      C2169   1.366       .  A
N2165      C2166   1.354       .  A
C2166      C2167   1.381       .  A
C2167      C2168   1.372       .  A
C2167      H2170   1.083       .  S
C2168      C2169   1.386       .  A
C2168      H2171   1.083       .  S
N2172      C2176   1.366       .  A
N2172      C2173   1.354       .  A
C2173      C2307   1.474       .  S
C2173      C2174   1.381       .  A
C2174      C2175   1.372       .  A
C2174      H2177   1.083       .  S
C2175      C2176   1.386       .  A
C2175      H2178   1.083       .  S
O2179      V2187   1.894       .  S
O2179      C2189   1.254       .  A
O2180      V2187   1.894       .  S
O2180      C2190   1.254       .  A
O2181      V2187   1.894       .  S
O2181      C2191   1.254       .  A
O2182      V2187   1.894       .  S
O2182      C2192   1.254       .  A
O2183      V2188   1.920       .  S
O2183      C2192   1.274       .  A
O2184      V2188   1.920       .  S
O2184      C2191   1.274       .  A
O2185      V2188   1.920       .  S
O2185      C2190   1.274       .  A
O2186      V2188   1.920       .  S
O2186      C2189   1.274       .  A
V2187      V2188   2.035       .  T
C2189      N2193   1.436       .  S
C2190      N2214   1.436       .  S
C2191      N2200   1.436       .  S
C2192      N2207   1.436       .  S
N2193      C2197   1.366       .  A
N2193      C2194   1.354       .  A
C2194      C2195   1.381       .  A
C2195      C2196   1.372       .  A
C2195      H2198   1.083       .  S
C2196      C2197   1.386       .  A
N2200      C2204   1.366       .  A
N2200      C2201   1.354       .  A
C2201      C2202   1.381       .  A
C2202      C2203   1.372       .  A
C2202      H2205   1.083       .  S
C2203      C2204   1.386       .  A
N2207      C2211   1.366       .  A
N2207      C2208   1.354       .  A
C2208      C2209   1.381       .  A
C2209      C2210   1.372       .  A
C2209      H2212   1.083       .  S
C2210      C2211   1.386       .  A
N2214      C2218   1.366       .  A
N2214      C2215   1.354       .  A
C2215      C2216   1.381       .  A
C2216      C2217   1.372       .  A
C2216      H2219   1.083       .  S
C2217      C2218   1.386       .  A
O2221      V2229   1.920       .  S
O2221      C2231   1.274       .  A
O2222      V2229   1.920       .  S
O2222      C2232   1.274       .  A
O2223      V2229   1.920       .  S
O2223      C2233   1.274       .  A
O2224      V2229   1.920       .  S
O2224      C2234   1.274       .  A
O2225      V2230   1.894       .  S
O2225      C2234   1.254       .  A
O2226      V2230   1.894       .  S
O2226      C2233   1.254       .  A
O2227      V2230   1.894       .  S
O2227      C2232   1.254       .  A
O2228      V2230   1.894       .  S
O2228      C2231   1.254       .  A
V2229      V2230   2.035       .  T
C2231      N2256   1.436       .  S
C2232      N2235   1.436       .  S
C2233      N2249   1.436       .  S
C2234      N2242   1.436       .  S
N2235      C2239   1.366       .  A
N2235      C2236   1.354       .  A
C2236      C2399   1.474       .  S
C2236      C2237   1.381       .  A
C2237      C2238   1.372       .  A
C2237      H2240   1.083       .  S
C2238      C2239   1.386       .  A
C2238      H2241   1.083       .  S
N2242      C2246   1.366       .  A
N2242      C2243   1.354       .  A
C2243      C2244   1.381       .  A
C2244      C2245   1.372       .  A
C2244      H2247   1.083       .  S
C2245      C2246   1.386       .  A
C2245      H2248   1.083       .  S
N2249      C2253   1.366       .  A
N2249      C2250   1.354       .  A
C2250      C2251   1.381       .  A
C2251      C2252   1.372       .  A
C2251      H2254   1.083       .  S
C2252      C2253   1.386       .  A
C2252      H2255   1.083       .  S
N2256      C2260   1.366       .  A
N2256      C2257   1.354       .  A
C2257      C2258   1.381       .  A
C2258      C2259   1.372       .  A
C2258      H2261   1.083       .  S
C2259      C2260   1.386       .  A
C2259      H2262   1.083       .  S
O2263      V2271   1.894       .  S
O2263      C2273   1.254       .  A
O2264      V2271   1.894       .  S
O2264      C2274   1.254       .  A
O2265      V2271   1.894       .  S
O2265      C2275   1.254       .  A
O2266      V2271   1.894       .  S
O2266      C2276   1.254       .  A
O2267      V2272   1.920       .  S
O2267      C2276   1.274       .  A
O2268      V2272   1.920       .  S
O2268      C2275   1.274       .  A
O2269      V2272   1.920       .  S
O2269      C2274   1.274       .  A
O2270      V2272   1.920       .  S
O2270      C2273   1.274       .  A
V2271      V2272   2.035       .  T
C2273      N2277   1.436       .  S
C2274      N2298   1.436       .  S
C2275      N2284   1.436       .  S
C2276      N2291   1.436       .  S
N2277      C2281   1.366       .  A
N2277      C2278   1.354       .  A
C2278      C2279   1.381       .  A
C2279      C2280   1.372       .  A
C2279      H2282   1.083       .  S
C2280      C2281   1.386       .  A
N2284      C2288   1.366       .  A
N2284      C2285   1.354       .  A
C2285      C2309   1.474       .  S
C2285      C2286   1.381       .  A
C2286      C2287   1.372       .  A
C2286      H2289   1.083       .  S
C2287      C2288   1.386       .  A
N2291      C2295   1.366       .  A
N2291      C2292   1.354       .  A
C2292      C2293   1.381       .  A
C2293      C2294   1.372       .  A
C2293      H2296   1.083       .  S
C2294      C2295   1.386       .  A
N2298      C2302   1.366       .  A
N2298      C2299   1.354       .  A
C2299      C2300   1.381       .  A
C2300      C2301   1.372       .  A
C2300      H2303   1.083       .  S
C2301      C2302   1.386       .  A
C2305      N2306   1.359       .  A
C2305      N2310   1.358       .  A
C2305      C2375   1.474       .  S
N2306      C2307   1.358       .  A
C2307      N2308   1.359       .  A
N2308      C2309   1.358       .  A
C2309      N2310   1.359       .  A
O2311      V2319   1.920       .  S
O2311      C2321   1.274       .  A
O2312      V2319   1.920       .  S
O2312      C2322   1.274       .  A
O2313      V2319   1.920       .  S
O2313      C2323   1.274       .  A
O2314      V2319   1.920       .  S
O2314      C2324   1.274       .  A
O2315      V2320   1.894       .  S
O2315      C2324   1.254       .  A
O2316      V2320   1.894       .  S
O2316      C2323   1.254       .  A
O2317      V2320   1.894       .  S
O2317      C2322   1.254       .  A
O2318      V2320   1.894       .  S
O2318      C2321   1.254       .  A
V2319      V2320   2.035       .  T
C2321      N2346   1.436       .  S
C2322      N2325   1.436       .  S
C2323      N2332   1.436       .  S
C2324      N2339   1.436       .  S
N2325      C2329   1.366       .  A
N2325      C2326   1.354       .  A
C2326      C2397   1.474       .  S
C2326      C2327   1.381       .  A
C2327      C2328   1.372       .  A
C2327      H2330   1.083       .  S
C2328      C2329   1.386       .  A
C2328      H2331   1.083       .  S
N2332      C2336   1.366       .  A
N2332      C2333   1.354       .  A
C2333      C2334   1.381       .  A
C2334      C2335   1.372       .  A
C2334      H2337   1.083       .  S
C2335      C2336   1.386       .  A
C2335      H2338   1.083       .  S
N2339      C2343   1.366       .  A
N2339      C2340   1.354       .  A
C2340      C2341   1.381       .  A
C2341      C2342   1.372       .  A
C2341      H2344   1.083       .  S
C2342      C2343   1.386       .  A
C2342      H2345   1.083       .  S
N2346      C2350   1.366       .  A
N2346      C2347   1.354       .  A
C2347      C2348   1.381       .  A
C2348      C2349   1.372       .  A
C2348      H2351   1.083       .  S
C2349      C2350   1.386       .  A
C2349      H2352   1.083       .  S
O2353      V2361   1.894       .  S
O2353      C2363   1.254       .  A
O2354      V2361   1.894       .  S
O2354      C2364   1.254       .  A
O2355      V2361   1.894       .  S
O2355      C2365   1.254       .  A
O2356      V2361   1.894       .  S
O2356      C2366   1.254       .  A
O2357      V2362   1.920       .  S
O2357      C2366   1.274       .  A
O2358      V2362   1.920       .  S
O2358      C2365   1.274       .  A
O2359      V2362   1.920       .  S
O2359      C2364   1.274       .  A
O2360      V2362   1.920       .  S
O2360      C2363   1.274       .  A
V2361      V2362   2.035       .  T
C2363      N2367   1.436       .  S
C2364      N2388   1.436       .  S
C2365      N2381   1.436       .  S
C2366      N2374   1.436       .  S
N2367      C2371   1.366       .  A
N2367      C2368   1.354       .  A
C2368      C2369   1.381       .  A
C2369      C2370   1.372       .  A
C2369      H2372   1.083       .  S
C2370      C2371   1.386       .  A
N2374      C2378   1.366       .  A
N2374      C2375   1.354       .  A
C2375      C2376   1.381       .  A
C2376      C2377   1.372       .  A
C2376      H2379   1.083       .  S
C2377      C2378   1.386       .  A
N2381      C2385   1.366       .  A
N2381      C2382   1.354       .  A
C2382      C2383   1.381       .  A
C2383      C2384   1.372       .  A
C2383      H2386   1.083       .  S
C2384      C2385   1.386       .  A
N2388      C2392   1.366       .  A
N2388      C2389   1.354       .  A
C2389      C2390   1.381       .  A
C2390      C2391   1.372       .  A
C2390      H2393   1.083       .  S
C2391      C2392   1.386       .  A
C2395      N2396   1.358       .  A
C2395      N2400   1.359       .  A
N2396      C2397   1.359       .  A
C2397      N2398   1.358       .  A
N2398      C2399   1.359       .  A
C2399      N2400   1.358       .  A
