geometry optimzed in LAMMPS
_audit_creation_date              2020-12-01 
_audit_creation_method            'lammps2cif' 
_symmetry_space_group_name_H-M    'P1' 
_symmetry_Int_Tables_number       1 
_symmetry_cell_setting            triclinic 
loop_ 
_symmetry_equiv_pos_as_xyz 
  x,y,z 
_cell_length_a                    51.31540129 
_cell_length_b                    51.34350012746963 
_cell_length_c                    39.50864143368724 
_cell_angle_alpha                 89.89522920244691 
_cell_angle_beta                  90.02654514491387 
_cell_angle_gamma                 90.10350434301415 
loop_ 
_atom_site_label 
_atom_site_type_symbol 
_atom_site_fract_x 
_atom_site_fract_y 
_atom_site_fract_z 
_atom_site_charge 
N1          N  0.01220821  0.76770134  0.48320466    -0.03400
C2          C  0.00681628  0.74178222  0.48401551    -0.00800
C3          C  0.00921031  0.73262480  0.01543062    -0.23700
C4          C  0.01678979  0.75290779  0.03555530    -0.23900
C5          C  0.01787133  0.77468163  0.01503648    -0.00900
H6          H  0.00695061  0.71252761  0.02322518     0.12900
H7          H  0.02083182  0.75198475  0.06242149     0.12900
N8          N  0.98635686  0.24242807  0.01440974    -0.03400
C9          C  0.98839338  0.26872923  0.01629650    -0.00800
C10         C  0.98447221  0.28039053  0.48482663    -0.23700
C11         C  0.97847234  0.26065087  0.46289031    -0.23900
C12         C  0.98041091  0.23773501  0.48104538    -0.00900
H13         H  0.98476468  0.30099368  0.47899102     0.12900
H14         H  0.97376851  0.26269681  0.43631103     0.12900
N15         N  0.73563291  0.99635420  0.47231061    -0.03400
C16         C  0.76158907  0.99315555  0.46692959    -0.00800
C17         C  0.77525457  0.99687317  0.99688601    -0.23700
C18         C  0.75720657  0.00158809  0.02162812    -0.23900
C19         C  0.73301874  0.00176626  0.00611450    -0.00900
H20         H  0.79618395  0.99605173  0.00010871     0.12900
H21         H  0.76128783  0.00469204  0.04819782     0.12900
N22         N  0.25988968  0.02875532  0.00037725    -0.03400
C23         C  0.23355127  0.02924907  0.00124733    -0.00800
C24         C  0.22207657  0.03338300  0.47008859    -0.23700
C25         C  0.24263303  0.03512530  0.44807998    -0.23900
C26         C  0.26496323  0.03214873  0.46723444    -0.00900
H27         H  0.20160821  0.03400695  0.46350845     0.12900
H28         H  0.24138020  0.03656934  0.42079349     0.12900
N29         N  0.48806823  0.73853123  0.48266109    -0.03400
C30         C  0.49128349  0.76459452  0.47854375    -0.00800
C31         C  0.48845746  0.77589344  0.00909281    -0.23700
C32         C  0.48205452  0.75704543  0.03222125    -0.23900
C33         C  0.48278763  0.73354439  0.01528369    -0.00900
H34         H  0.48910475  0.79665604  0.01371510     0.12900
H35         H  0.47792963  0.76014999  0.05876284     0.12900
N36         N  0.51090835  0.26216275  0.01144649    -0.03400
C37         C  0.50881076  0.23594363  0.01490905    -0.00800
C38         C  0.51492680  0.22313224  0.48551819    -0.23700
C39         C  0.52290268  0.24229765  0.46371355    -0.23900
C40         C  0.51811517  0.26573067  0.47964352    -0.00900
H41         H  0.51595913  0.20235812  0.48111577     0.12900
H42         H  0.53065482  0.23947679  0.43851634     0.12900
N43         N  0.23091633  0.51055950  0.02576327    -0.03400
C44         C  0.25709322  0.50726153  0.02671233    -0.00800
C45         C  0.26849416  0.51430141  0.49523938    -0.23700
C46         C  0.24886267  0.52299986  0.47469675    -0.23900
C47         C  0.22604058  0.52056248  0.49299338    -0.00900
H48         H  0.28904100  0.51378680  0.48909786     0.12900
H49         H  0.25087776  0.52969100  0.44883364     0.12900
N50         N  0.75451204  0.49876809  0.49152807    -0.03400
C51         C  0.72935518  0.49156033  0.48663184    -0.00800
C52         C  0.71764236  0.48616545  0.01754109    -0.23700
C53         C  0.73611052  0.49094737  0.04171240    -0.23900
C54         C  0.75837598  0.49901031  0.02492065    -0.00900
H55         H  0.69770825  0.48021470  0.02211989     0.12900
H56         H  0.73364375  0.48829190  0.06869643     0.12900
O57         O  0.48202669  0.51205195  0.19074061    -0.88300
C58         C  0.46488884  0.54175957  0.28315331     0.87800
Mg59       Mg  0.47394912  0.47250796  0.17649142     1.58100
O60         O  0.53143226  0.53413253  0.26772489    -0.88000
O61         O  0.51401305  0.54064738  0.19240836    -0.75300
C62         C  0.52315078  0.40683335  0.30512601     0.92800
O63         O  0.43662028  0.49614699  0.24200241    -0.75100
O64         O  0.50766408  0.40381872  0.28030657    -0.82700
Mg65       Mg  0.45071313  0.53281594  0.21365997     1.58000
C66         C  0.57959520  0.49886552  0.33344061     0.92700
O67         O  0.46220272  0.56914622  0.18348185    -0.80900
H68         H  0.56219277  0.54083474  0.23791380    -0.06300
C69         C  0.49564192  0.47459206  0.31791460     0.87700
O70         O  0.51704205  0.46221356  0.18456520    -0.75400
O71         O  0.47519876  0.54279112  0.25488563    -0.88200
O72         O  0.56372535  0.51796857  0.33277935    -0.81000
C73         C  0.51389721  0.58818274  0.32258409     0.92800
C74         C  0.47486921  0.59033209  0.18642788     0.92700
Mg75       Mg  0.54556278  0.46579370  0.27969529     1.58000
O76         O  0.53596882  0.42795677  0.30905637    -0.80900
O77         O  0.55830633  0.50303777  0.25203596    -0.75200
O78         O  0.50683330  0.58901090  0.29152360    -0.81000
O79         O  0.42295159  0.52272843  0.17213855    -0.82700
O80         O  0.48686276  0.40945785  0.20342985    -0.81000
C81         C  0.55121562  0.52677224  0.25251942     0.87100
O82         O  0.52028422  0.45556722  0.23907551    -0.88200
O83         O  0.51424719  0.48572240  0.30410785    -0.88300
O84         O  0.48257424  0.45690754  0.30302735    -0.75300
Mg85       Mg  0.51001293  0.56361145  0.24254968     1.58000
O86         O  0.52403903  0.56778460  0.33552803    -0.82700
H87         H  0.50764886  0.51613598  0.15294151    -0.06400
O88         O  0.46376755  0.46483576  0.22806919    -0.88000
H89         H  0.43271680  0.45865063  0.25762345    -0.06300
H90         H  0.55041915  0.45060518  0.20765880    -0.06400
C91         C  0.44385361  0.47243701  0.24278038     0.87100
C92         C  0.50123409  0.52267007  0.17755898     0.87700
C93         C  0.53008238  0.45560838  0.21050280     0.87700
H94         H  0.48991846  0.48053233  0.34307135    -0.06400
O95         O  0.47745826  0.53451156  0.30920356    -0.75400
Mg96       Mg  0.48554728  0.43498042  0.25227550     1.58000
H97         H  0.44439230  0.54623302  0.28552758    -0.06400
C98         C  0.41628930  0.50065223  0.16064837     0.92700
O99         O  0.46774049  0.43040506  0.16085042    -0.82700
C100        C  0.47758933  0.40977515  0.17336845     0.92800
O101        O  0.48893263  0.59475682  0.21235952    -0.82700
Mg102      Mg  0.52055029  0.52542259  0.31883828     1.58200
O103        O  0.43084661  0.48070175  0.16363062    -0.81000
O104        O  0.57406235  0.47701282  0.32011547    -0.82700
O105        O  0.50944393  0.01200785  0.18169787    -0.88300
C106        C  0.54137946  0.02825392  0.27312937     0.87800
Mg107      Mg  0.46996202  0.02111806  0.16911345     1.58100
O108        O  0.52696994  0.96236603  0.25968384    -0.88000
O109        O  0.53518648  0.97792254  0.18337498    -0.75300
C110        C  0.40304448  0.98206592  0.30355813     0.92800
O111        O  0.49663734  0.05863834  0.23193592    -0.75100
O112        O  0.39998287  0.99574665  0.27695359    -0.82700
Mg113      Mg  0.53226843  0.04248584  0.20349286     1.58000
C114        C  0.49015647  0.91830571  0.33050495     0.92700
O115        O  0.56899924  0.02949905  0.17384600    -0.80900
H116        H  0.53068704  0.92992396  0.23215414    -0.06300
C117        C  0.47254762  0.00382913  0.31123805     0.87700
O118        O  0.45781749  0.97886897  0.18059824    -0.75400
O119        O  0.54110009  0.01766221  0.24502628    -0.88200
O120        O  0.51032193  0.93247197  0.32633482    -0.81000
C121        C  0.58389918  0.97500445  0.31233934     0.92800
C122        C  0.58908130  0.01514257  0.17786625     0.92700
Mg123      Mg  0.45858376  0.95326890  0.27742068     1.58000
O124        O  0.42315664  0.96790540  0.30776767    -0.80900
O125        O  0.49387639  0.93632758  0.24895950    -0.75200
O126        O  0.58443203  0.98226775  0.28140249    -0.81000
O127        O  0.52253049  0.07064216  0.16163214    -0.82700
O128        O  0.40625639  0.01194056  0.19827586    -0.81000
C129        C  0.51791203  0.94232811  0.24669787     0.87100
O130        O  0.44995961  0.97759004  0.23516735    -0.88200
O131        O  0.48168623  0.98395802  0.29809895    -0.88300
O132        O  0.45552386  0.01773333  0.29631928    -0.75300
Mg133      Mg  0.55825283  0.98082998  0.23326471     1.58000
O134        O  0.56288420  0.96684945  0.32589362    -0.82700
H135        H  0.51146994  0.98638709  0.14372966    -0.06400
O136        O  0.46354460  0.03290629  0.22023178    -0.88000
H137        H  0.45975188  0.06496533  0.24845931    -0.06300
H138        H  0.44430403  0.94679601  0.20510321    -0.06400
C139        C  0.47257507  0.05272853  0.23374496     0.87100
C140        C  0.51849999  0.99217182  0.16840194     0.87700
C141        C  0.45011015  0.96698963  0.20704800     0.87700
H142        H  0.47966439  0.00986423  0.33576555    -0.06400
O143        O  0.53362065  0.01652134  0.29962550    -0.75400
Mg144      Mg  0.43238877  0.01420311  0.24641120     1.58000
H145        H  0.54755384  0.04834302  0.27500427    -0.06400
C146        C  0.50042341  0.07781160  0.15047787     0.92700
O147        O  0.42794454  0.02811270  0.15433086    -0.82700
C148        C  0.40697640  0.01939662  0.16743740     0.92800
O149        O  0.59080465  0.99920722  0.20251115    -0.82700
Mg150      Mg  0.52095653  0.97449594  0.31092366     1.58200
O151        O  0.48014512  0.06359880  0.15392689    -0.81000
O152        O  0.46783134  0.92547841  0.32013286    -0.82700
O153        O  0.02018426  0.99374676  0.18938827    -0.88300
C154        C  0.03691059  0.96234781  0.28111324     0.87800
Mg155      Mg  0.02608896  0.03368214  0.17700475     1.58100
O156        O  0.97035278  0.96935937  0.26390374    -0.88000
O157        O  0.98910730  0.96429599  0.18876853    -0.75300
C158        C  0.97624127  0.09471486  0.30942419     0.92800
O159        O  0.06524392  0.00989409  0.24177892    -0.75100
O160        O  0.99235865  0.09855643  0.28539444    -0.82700
Mg161      Mg  0.05245182  0.97371425  0.21204993     1.58000
C162        C  0.91989019  0.00077692  0.33079109     0.92700
O163        O  0.04247452  0.93774598  0.18027752    -0.80900
H164        H  0.94003278  0.96296210  0.23320048    -0.06300
C165        C  0.00462707  0.02682989  0.31828780     0.87700
O166        O  0.98301313  0.04256508  0.18627007    -0.75400
O167        O  0.02735779  0.96198116  0.25235805    -0.88200
O168        O  0.93644950  0.98233424  0.32908799    -0.81000
C169        C  0.98673764  0.91355931  0.31643148     0.92800
C170        C  0.03032746  0.91618812  0.18295647     0.92700
Mg171      Mg  0.95430777  0.03658719  0.28034231     1.58000
O172        O  0.96340661  0.07346227  0.31181054    -0.80900
O173        O  0.94252638  0.00016696  0.25013646    -0.75200
O174        O  0.99557706  0.91419641  0.28619265    -0.81000
O175        O  0.08101082  0.98640658  0.17172902    -0.82700
O176        O  0.01331329  0.09608797  0.20750169    -0.81000
C177        C  0.95045685  0.97671124  0.24889513     0.87100
O178        O  0.97992597  0.04847919  0.24088460    -0.88200
O179        O  0.98582320  0.01631858  0.30411904    -0.88300
O180        O  0.01780828  0.04486102  0.30421395    -0.75300
Mg181      Mg  0.99303977  0.94084787  0.23835691     1.58000
O182        O  0.97587915  0.93344782  0.32949739    -0.82700
H183        H  0.99585903  0.98959491  0.15019046    -0.06400
O184        O  0.03682177  0.04029521  0.22880566    -0.88000
H185        H  0.06791303  0.04727730  0.25797168    -0.06300
H186        H  0.94961910  0.05341115  0.20973470    -0.06400
C187        C  0.05719264  0.03329104  0.24298262     0.87100
C188        C  0.00176342  0.98280539  0.17494637     0.87700
C189        C  0.97005362  0.04873595  0.21236406     0.87700
H190        H  0.01050314  0.01993874  0.34300866    -0.06400
O191        O  0.02341061  0.96809834  0.30700113    -0.75400
Mg192      Mg  0.01467032  0.06880396  0.25497970     1.58000
H193        H  0.05746796  0.95841405  0.28418097    -0.06400
C194        C  0.08489207  0.00887098  0.15911417     0.92700
O195        O  0.03092518  0.07593776  0.16330783    -0.82700
C196        C  0.02187705  0.09636802  0.17706423     0.92800
O197        O  0.01578770  0.91110711  0.20822858    -0.82700
Mg198      Mg  0.97987096  0.97613578  0.31589292     1.58200
O199        O  0.06829752  0.02709910  0.16172323    -0.81000
O200        O  0.92475051  0.02346334  0.31935445    -0.82700
O201        O  0.98023537  0.48822208  0.19915739    -0.88300
C202        C  0.94746978  0.47033053  0.29027075     0.87800
Mg203      Mg  0.01983529  0.47871804  0.18618789     1.58100
O204        O  0.96067288  0.53660434  0.27867861    -0.88000
O205        O  0.95415808  0.52207267  0.20225815    -0.75300
C206        C  0.08549403  0.51961888  0.31996758     0.92800
O207        O  0.99214836  0.44040440  0.24825641    -0.75100
O208        O  0.08802398  0.50369023  0.29558966    -0.82700
Mg209      Mg  0.95684038  0.45750618  0.21980872     1.58000
C210        C  0.99757344  0.57984807  0.34919413     0.92700
O211        O  0.92106801  0.47205274  0.18953865    -0.80900
H212        H  0.95603975  0.56921721  0.25164210    -0.06300
C213        C  0.01575138  0.49519866  0.32898127     0.87700
O214        O  0.03234582  0.52074594  0.19768645    -0.75400
O215        O  0.94763223  0.48139855  0.26241741    -0.88200
O216        O  0.97725284  0.56577829  0.34573376    -0.81000
C217        C  0.90411212  0.52325306  0.33066461     0.92800
C218        C  0.90125354  0.48666666  0.19373907     0.92700
Mg219      Mg  0.02887264  0.54612487  0.29431902     1.58000
O220        O  0.06511255  0.53348430  0.32306888    -0.80900
O221        O  0.99327735  0.56275387  0.26665734    -0.75200
O222        O  0.90324051  0.51664541  0.29946574    -0.81000
O223        O  0.96654746  0.43040795  0.17682423    -0.82700
O224        O  0.08288022  0.48685859  0.21718971    -0.81000
C225        C  0.96924151  0.55679587  0.26557988     0.87100
O226        O  0.03802252  0.52165912  0.25253994    -0.88200
O227        O  0.00650275  0.51509705  0.31597280    -0.88300
O228        O  0.03266145  0.48135255  0.31391065    -0.75300
Mg229      Mg  0.93019421  0.51836696  0.25160917     1.58000
O230        O  0.92525410  0.53037370  0.34478416    -0.82700
H231        H  0.97847904  0.51526044  0.16272947    -0.06400
O232        O  0.02543502  0.46617530  0.23739802    -0.88000
H233        H  0.02895993  0.43362541  0.26489590    -0.06300
H234        H  0.04527318  0.55256656  0.22311234    -0.06400
C235        C  0.01624866  0.44616874  0.25038154     0.87100
C236        C  0.97122322  0.50852659  0.18689960     0.87700
C237        C  0.03911441  0.53244787  0.22458126     0.87700
H238        H  0.00867714  0.48898311  0.35347404    -0.06400
O239        O  0.95503130  0.48172793  0.31707530    -0.75400
Mg240      Mg  0.05602756  0.48504383  0.26445932     1.58000
H241        H  0.94155647  0.45013432  0.29165586    -0.06400
C242        C  0.98848891  0.42343375  0.16500854     0.92700
O243        O  0.06235321  0.47084966  0.17213215    -0.82700
C244        C  0.08308775  0.47891417  0.18656330     0.92800
O245        O  0.89836925  0.50066080  0.21999898    -0.82700
Mg246      Mg  0.96717168  0.52375543  0.32941314     1.58200
O247        O  0.00908627  0.43693827  0.16957244    -0.81000
O248        O  0.01954704  0.57326955  0.33720474    -0.82700
C249        C  0.78324075  0.50406086  0.04288812    -0.19800
C250        C  0.78298918  0.51742245  0.07405013     0.36400
C251        C  0.80464361  0.51620814  0.09542212    -0.25800
C252        C  0.82703966  0.50247522  0.08595082     0.02900
C253        C  0.82841900  0.49131187  0.05338299     0.27700
C254        C  0.80630785  0.49187868  0.03226398    -0.24900
N255        N  0.76040028  0.53165566  0.08455102    -0.82300
H256        H  0.80349519  0.52515079  0.12020731     0.13500
C257        C  0.84778372  0.49845641  0.11159790     0.02800
N258        N  0.85200146  0.47890620  0.04234535    -0.80800
H259        H  0.80669766  0.48148136  0.00847776     0.18300
C260        C  0.85474904  0.47295613  0.12097610    -0.25700
C261        C  0.87210230  0.46836313  0.14794007     0.36300
C262        C  0.88226449  0.48971228  0.16602381    -0.19700
C263        C  0.87549825  0.51513650  0.15638263    -0.25000
C264        C  0.85870052  0.51975069  0.12905908     0.27700
H265        H  0.84604022  0.45660488  0.10783439     0.13500
N266        N  0.87893934  0.44223050  0.15749492    -0.82200
H267        H  0.88387755  0.53153492  0.16980723     0.18300
N268        N  0.85269368  0.54596253  0.11886537    -0.80800
H269        H  0.86977938  0.42876553  0.14159862     0.33900
H270        H  0.87163834  0.43895000  0.18183945     0.38400
H271        H  0.86230825  0.55940388  0.13433639     0.33900
H272        H  0.86000864  0.54860735  0.09440037     0.30600
H273        H  0.84981815  0.47174085  0.01774863     0.33900
H274        H  0.86648990  0.49323045  0.04120246     0.30600
H275        H  0.76595880  0.55098579  0.08871620     0.38500
H276        H  0.75400741  0.52391059  0.10760556     0.34000
C277        C  0.77382443  0.50374429  0.46576365    -0.19800
C278        C  0.78151685  0.48387630  0.44332751     0.36400
C279        C  0.80158367  0.48870293  0.41987364    -0.25800
C280        C  0.81401795  0.51303118  0.41837606     0.02900
C281        C  0.80588274  0.53313808  0.44022502     0.27700
C282        C  0.78588650  0.52824107  0.46384923    -0.24900
N283        N  0.76943151  0.45865906  0.44525774    -0.82300
H284        H  0.80803980  0.47326422  0.40321513     0.13500
C285        C  0.83702151  0.51628272  0.39590394     0.02800
N286        N  0.81822016  0.55825783  0.43863686    -0.80800
H287        H  0.77980797  0.54340104  0.48114449     0.18300
C288        C  0.83474777  0.52968880  0.36502724    -0.25700
C289        C  0.85620634  0.53200271  0.34280552     0.36300
C290        C  0.88046406  0.52117412  0.35217830    -0.19700
C291        C  0.88267699  0.50820562  0.38339420    -0.25000
C292        C  0.86119479  0.50544872  0.40516612     0.27700
H293        H  0.81611550  0.53805639  0.35812438     0.13500
N294        N  0.85365493  0.54599107  0.31144607    -0.82200
H295        H  0.90125246  0.49984910  0.39061544     0.18300
N296        N  0.86371511  0.49149543  0.43659514    -0.80800
H297        H  0.83493305  0.55381365  0.30920012     0.33900
H298        H  0.85560149  0.53255711  0.29177413     0.38400
H299        H  0.88268192  0.48443283  0.43952794     0.33900
H300        H  0.86061389  0.50472484  0.45626810     0.30600
H301        H  0.80979628  0.57094712  0.45615913     0.33900
H302        H  0.83766523  0.55590288  0.44590765     0.30600
H303        H  0.77392152  0.45069292  0.46891836     0.38500
H304        H  0.77731955  0.44615110  0.42710897     0.34000
C305        C  0.71523893  0.49104867  0.45412521    -0.19800
C306        C  0.69789771  0.47042774  0.44699201     0.36400
C307        C  0.67927821  0.47353053  0.42140783    -0.25800
C308        C  0.67769404  0.49682392  0.40304740     0.02900
C309        C  0.69635406  0.51655360  0.40814727     0.27700
C310        C  0.71515626  0.51343165  0.43371095    -0.24900
N311        N  0.69845725  0.44699145  0.46697048    -0.82300
H312        H  0.66497115  0.45834022  0.41704195     0.13500
C313        C  0.65460617  0.50095029  0.38147993     0.02800
N314        N  0.69535117  0.54002874  0.38835619    -0.80800
H315        H  0.72743346  0.52874976  0.93908256     0.18300
C316        C  0.63504837  0.51794203  0.39263384    -0.25700
C317        C  0.61059482  0.51872366  0.37655988     0.36300
C318        C  0.60568049  0.50173678  0.34914489    -0.19700
C319        C  0.62598978  0.48592293  0.33693503    -0.25000
C320        C  0.65040476  0.48543504  0.35278343     0.27700
H321        H  0.63853162  0.52977738  0.41487582     0.13500
N322        N  0.59049608  0.53557994  0.38918064    -0.82200
H323        H  0.62264769  0.47343707  0.31527513     0.18300
N324        N  0.67074188  0.46867390  0.34059782    -0.80800
H325        H  0.59684187  0.54533225  0.41089557     0.33900
H326        H  0.58731667  0.54998814  0.37092112     0.38400
H327        H  0.66447746  0.45835315  0.31929751     0.33900
H328        H  0.68615592  0.48055000  0.33266071     0.30600
H329        H  0.71036683  0.55269397  0.39543148     0.33900
H330        H  0.69883550  0.53491313  0.36315902     0.30600
H331        H  0.71641534  0.43798706  0.46277261     0.38500
H332        H  0.68411089  0.43392696  0.45884545     0.34000
C333        C  0.10598901  0.52173791  0.34644710    -0.19800
C334        C  0.12742791  0.50442172  0.34820792     0.36400
C335        C  0.14421885  0.50552272  0.37624290    -0.25800
C336        C  0.14033708  0.52364453  0.40222046     0.02900
C337        C  0.11959578  0.54139670  0.40015246     0.27700
C338        C  0.10271877  0.54034711  0.37229288    -0.24900
N339        N  0.13197459  0.48554973  0.32202771    -0.82300
H340        H  0.16063354  0.49231414  0.37777392     0.13500
C341        C  0.15902647  0.52447053  0.43061801     0.02800
N342        N  0.11555152  0.56012897  0.42664106    -0.80800
H343        H  0.08655206  0.55386118  0.37127662     0.18300
C344        C  0.17441662  0.54675094  0.43493113    -0.25700
C345        C  0.19475853  0.54713032  0.45842812     0.36300
C346        C  0.20027652  0.52432276  0.47730196    -0.19700
C347        C  0.18358109  0.50275543  0.47492154    -0.25000
C348        C  0.16281548  0.50267438  0.45177086     0.27700
H349        H  0.17120110  0.56367949  0.41904099     0.13500
N350        N  0.20991594  0.57060988  0.46160298    -0.82200
H351        H  0.18783110  0.48530704  0.48935942     0.18300
N352        N  0.14617172  0.48026064  0.44864607    -0.80800
H353        H  0.19717214  0.58550883  0.46866217     0.33900
H354        H  0.22334631  0.56919375  0.48136080     0.38400
H355        H  0.15168217  0.46581412  0.46589174     0.33900
H356        H  0.12733436  0.48600352  0.45537150     0.30600
H357        H  0.09943804  0.57186483  0.42124980     0.33900
H358        H  0.11106834  0.54983818  0.44875180     0.30600
H359        H  0.13741623  0.49576065  0.30021798     0.38500
H360        H  0.14775208  0.47358904  0.32821717     0.34000
C361        C  0.21241196  0.50481397  0.05226475    -0.19800
C362        C  0.19574059  0.52430836  0.06458589     0.36400
C363        C  0.17707805  0.51823522  0.08931090    -0.25800
C364        C  0.17493216  0.49292935  0.10259415     0.02900
C365        C  0.19240877  0.47352627  0.09132618     0.27700
C366        C  0.21093829  0.47966399  0.06613856    -0.24900
N367        N  0.19806223  0.55046082  0.05234864    -0.82300
H368        H  0.16389125  0.53332903  0.09780958     0.13500
C369        C  0.15337938  0.48704303  0.12682273     0.02800
N370        N  0.19127214  0.44776292  0.10552736    -0.80800
H371        H  0.22407628  0.46478609  0.05694233     0.18300
C372        C  0.13484540  0.46795516  0.11850786    -0.25700
C373        C  0.11236733  0.46425086  0.13831047     0.36300
C374        C  0.10798301  0.48003401  0.16700825    -0.19700
C375        C  0.12731586  0.49814503  0.17635298    -0.25000
C376        C  0.14994083  0.50174879  0.15665342     0.27700
H377        H  0.13738486  0.45639150  0.09583263     0.13500
N378        N  0.09409160  0.44436790  0.12912697    -0.82200
H379        H  0.12443473  0.51014192  0.19856327     0.18300
N380        N  0.16928954  0.52054763  0.16652488    -0.80800
H381        H  0.10388750  0.42652444  0.12904850     0.33900
H382        H  0.08766230  0.44811589  0.10448707     0.38400
H383        H  0.16384100  0.52983430  0.18895514     0.33900
H384        H  0.18647968  0.51040445  0.17177250     0.30600
H385        H  0.20541479  0.43583382  0.09453026     0.33900
H386        H  0.19599947  0.44924722  0.13119820     0.30600
H387        H  0.18009277  0.55597858  0.04215990     0.38500
H388        H  0.20202332  0.56255646  0.07299029     0.34000
C389        C  0.27269460  0.49795062  0.05553207    -0.19800
C390        C  0.29191153  0.47891350  0.05004402     0.36400
C391        C  0.31233095  0.47614159  0.07315287    -0.25800
C392        C  0.31394974  0.49234213  0.10152347     0.02900
C393        C  0.29313812  0.50945355  0.10894886     0.27700
C394        C  0.27256245  0.51201447  0.08589354    -0.24900
N395        N  0.29151865  0.46346663  0.01988691    -0.82300
H396        H  0.32806270  0.46279190  0.06743920     0.13500
C397        C  0.33934202  0.49430130  0.11890129     0.02800
N398        N  0.29284551  0.52491489  0.13910183    -0.80800
H399        H  0.25855671  0.52846524  0.58734237     0.18300
C400        C  0.35381984  0.51721301  0.11455316    -0.25700
C401        C  0.37912108  0.51939175  0.12728334     0.36300
C402        C  0.39045220  0.49817393  0.14451315    -0.19700
C403        C  0.37621790  0.47490683  0.14811107    -0.25000
C404        C  0.35065906  0.47279413  0.13547548     0.27700
H405        H  0.34563024  0.53336159  0.10041278     0.13500
N406        N  0.39349165  0.54298109  0.12182892    -0.82200
H407        H  0.38482272  0.45857224  0.16141514     0.18300
N408        N  0.33618895  0.44896965  0.13917446    -0.80800
H409        H  0.39468722  0.54627084  0.09574938     0.33900
H410        H  0.38302197  0.55833380  0.13257569     0.38400
H411        H  0.34733791  0.43497424  0.15182024     0.33900
H412        H  0.32010146  0.45288242  0.15456665     0.30600
H413        H  0.31061234  0.54035565  0.63382924     0.33900
H414        H  0.29450615  0.51239985  0.15988933     0.30600
H415        H  0.30888944  0.46679959  0.00672803     0.38500
H416        H  0.29105515  0.44386152  0.02704356     0.34000
C417        C  0.49812891  0.10391200  0.13441464    -0.19800
C418        C  0.51999950  0.11662228  0.12007818     0.36400
C419        C  0.51742553  0.14212501  0.10773177    -0.25800
C420        C  0.49347668  0.15518115  0.10874206     0.02900
C421        C  0.47153714  0.14255263  0.12263146     0.27700
C422        C  0.47407161  0.11704132  0.13534571    -0.24900
N423        N  0.54462805  0.10345829  0.11737434    -0.82300
H424        H  0.53403943  0.15160030  0.09604142     0.13500
C425        C  0.49143945  0.18053460  0.09086916     0.02800
N426        N  0.44684595  0.15569610  0.12371240    -0.80800
H427        H  0.45727573  0.10755610  0.14654569     0.18300
C428        C  0.47596925  0.18176749  0.06171356    -0.25700
C429        C  0.47930527  0.20192198  0.03814101     0.36300
C430        C  0.49828920  0.22128461  0.04405053    -0.19700
C431        C  0.51156828  0.22181886  0.07504869    -0.25000
C432        C  0.50832268  0.20145613  0.09864030     0.27700
H433        H  0.46296200  0.16575141  0.05582513     0.13500
N434        N  0.46504424  0.20173171  0.00680523    -0.82200
H435        H  0.52614705  0.23672671  0.07947202     0.18300
N436        N  0.52326224  0.20097687  0.12940537    -0.80800
H437        H  0.45221653  0.18590276  0.00596721     0.33900
H438        H  0.45072359  0.21652167  0.50604039     0.38400
H439        H  0.53498042  0.21760042  0.13117096     0.33900
H440        H  0.51010944  0.20177652  0.14957901     0.30600
H441        H  0.43263715  0.14372093  0.13462847     0.33900
H442        H  0.44892054  0.17181870  0.13962138     0.30600
H443        H  0.54213215  0.08785860  0.10069707     0.38500
H444        H  0.55869919  0.11565074  0.10656253     0.34000
C445        C  0.52127566  0.29098278  0.46215002    -0.19800
C446        C  0.54469436  0.29668877  0.44512037     0.36400
C447        C  0.54568481  0.31736704  0.42206348    -0.25800
C448        C  0.52351639  0.33238263  0.41541367     0.02900
C449        C  0.50037556  0.32771902  0.43385074     0.27700
C450        C  0.49951610  0.30703759  0.45727680    -0.24900
N451        N  0.56733513  0.28094218  0.45051420    -0.82300
H452        H  0.56350206  0.32088461  0.40804822     0.13500
C453        C  0.52428078  0.35125994  0.38702975     0.02800
N454        N  0.47768594  0.34343533  0.42780811    -0.80800
H455        H  0.48142641  0.30245135  0.47013241     0.18300
C456        C  0.50780683  0.34726334  0.35926380    -0.25700
C457        C  0.50807164  0.36423970  0.33147636     0.36300
C458        C  0.52503807  0.38603803  0.33137098    -0.19700
C459        C  0.54229131  0.38934755  0.35878261    -0.25000
C460        C  0.54207350  0.37218290  0.38657318     0.27700
H461        H  0.49462467  0.33073802  0.35911697     0.13500
N462        N  0.49073541  0.35931780  0.30376714    -0.82200
H463        H  0.55556789  0.40577005  0.35904532     0.18300
N464        N  0.55952784  0.37612620  0.41457645    -0.80800
H465        H  0.49483269  0.34080167  0.29418344     0.33900
H466        H  0.47166313  0.35915331  0.31306960     0.38400
H467        H  0.57149247  0.39229603  0.41026649     0.33900
H468        H  0.54821635  0.38042775  0.43584333     0.30600
H469        H  0.46223353  0.33731991  0.44314886     0.33900
H470        H  0.48219448  0.36248128  0.43509865     0.30600
H471        H  0.58236480  0.29305475  0.45899998     0.38500
H472        H  0.57293349  0.27309118  0.42722689     0.34000
C473        C  0.50476186  0.28181495  0.03624671    -0.19800
C474        C  0.52417645  0.29897829  0.04784568     0.36400
C475        C  0.51797038  0.31834949  0.07147170    -0.25800
C476        C  0.49253184  0.32097018  0.08408763     0.02900
C477        C  0.47292032  0.30374240  0.07247884     0.27700
C478        C  0.47929713  0.28422056  0.04875867    -0.24900
N479        N  0.55039970  0.29644901  0.03598233    -0.82300
H480        H  0.53312991  0.33156635  0.07986964     0.13500
C481        C  0.48693820  0.34219946  0.10885185     0.02800
N482        N  0.44670685  0.30609539  0.08486753    -0.80800
H483        H  0.46439207  0.27100643  0.03966435     0.18300
C484        C  0.46809788  0.36106872  0.10113602    -0.25700
C485        C  0.46404136  0.38265749  0.12234419     0.36300
C486        C  0.47922018  0.38580959  0.15199084    -0.19700
C487        C  0.49736435  0.36629799  0.16034352    -0.25000
C488        C  0.50134056  0.34458854  0.13918022     0.27700
H489        H  0.45688433  0.35942256  0.07798633     0.13500
N490        N  0.44444471  0.40130792  0.11351918    -0.82200
H491        H  0.50903750  0.36828048  0.18304815     0.18300
N492        N  0.52017361  0.32506050  0.14816751    -0.80800
H493        H  0.42657003  0.39157622  0.11191917     0.33900
H494        H  0.44886234  0.40878240  0.08956174     0.38400
H495        H  0.52925285  0.32971242  0.17107125     0.33900
H496        H  0.51009293  0.30760305  0.15212534     0.30600
H497        H  0.43464593  0.29211283  0.07367160     0.33900
H498        H  0.44702380  0.30202919  0.11079989     0.30600
H499        H  0.55585712  0.31408395  0.02473901     0.38500
H500        H  0.56245878  0.29332923  0.05692954     0.34000
C501        C  0.49733456  0.77864474  0.44687271    -0.19800
C502        C  0.51772125  0.79721098  0.44604813     0.36400
C503        C  0.51760897  0.81670143  0.42144277    -0.25800
C504        C  0.49759572  0.81816873  0.39739088     0.02900
C505        C  0.47916001  0.79760847  0.39536765     0.27700
C506        C  0.47912457  0.77815799  0.42041575    -0.24900
N507        N  0.53844848  0.79720665  0.47039257    -0.82300
H508        H  0.53229850  0.83187689  0.42261630     0.13500
C509        C  0.49478865  0.84293838  0.37828162     0.02800
N510        N  0.46007018  0.79613175  0.36880025    -0.80800
H511        H  0.46368851  0.76372235  0.42051500     0.18300
C512        C  0.51569367  0.85210485  0.35875623    -0.25700
C513        C  0.51495369  0.87682402  0.34341006     0.36300
C514        C  0.49259155  0.89262856  0.34743400    -0.19700
C515        C  0.47152595  0.88321063  0.36658233    -0.25000
C516        C  0.47258038  0.85878806  0.38258163     0.27700
H517        H  0.53284264  0.84001539  0.35593210     0.13500
N518        N  0.53649750  0.88547435  0.32298929    -0.82200
H519        H  0.45437531  0.89525015  0.36974408     0.18300
N520        N  0.45143779  0.85025600  0.40378375    -0.80800
H521        H  0.55020786  0.87058850  0.32023401     0.33900
H522        H  0.54597468  0.90033933  0.33622544     0.38400
H523        H  0.45848345  0.84893944  0.42855906     0.33900
H524        H  0.43650897  0.86408975  0.40407642     0.30600
H525        H  0.44170509  0.79884304  0.37964870     0.33900
H526        H  0.46278746  0.81081609  0.35081859     0.30600
H527        H  0.53093970  0.80009014  0.49461470     0.38500
H528        H  0.54768643  0.77911597  0.46960760     0.34000
C529        C  0.47431998  0.60971239  0.15835825    -0.19800
C530        C  0.46685489  0.60280149  0.12488482     0.36400
C531        C  0.46906829  0.62126635  0.09872675    -0.25800
C532        C  0.47828203  0.64637361  0.10521051     0.02900
C533        C  0.48565981  0.65342708  0.13825627     0.27700
C534        C  0.48365044  0.63504599  0.16447575    -0.24900
N535        N  0.45758685  0.57702649  0.11722114    -0.82300
H536        H  0.46324442  0.61621093  0.07319259     0.13500
C537        C  0.47828720  0.66590600  0.07780817     0.02800
N538        N  0.49484420  0.67937569  0.14505043    -0.80800
H539        H  0.48952600  0.64055615  0.18981428     0.18300
C540        C  0.45649770  0.68201044  0.07438528    -0.25700
C541        C  0.45679439  0.70313060  0.05213230     0.36300
C542        C  0.47935383  0.70828090  0.03266111    -0.19700
C543        C  0.50048682  0.69101182  0.03432835    -0.25000
C544        C  0.50019796  0.66978128  0.05689624     0.27700
H545        H  0.43948738  0.67868928  0.09008597     0.13500
N546        N  0.43392045  0.71901265  0.04987305    -0.82200
H547        H  0.51783912  0.69499951  0.01963133     0.18300
N548        N  0.52219507  0.65257937  0.05927935    -0.80800
H549        H  0.42712457  0.72244647  0.52826166     0.33900
H550        H  0.43810822  0.73945364  0.56228178     0.38400
H551        H  0.53658407  0.65800599  0.04189451     0.33900
H552        H  0.53036330  0.65479360  0.08334316     0.30600
H553        H  0.49912495  0.68158058  0.17076499     0.33900
H554        H  0.51238947  0.68193166  0.13202126     0.30600
H555        H  0.43909631  0.57514286  0.12804146     0.38500
H556        H  0.45494428  0.57473864  0.09114843     0.34000
C557        C  0.50915790  0.61114443  0.34479774    -0.19800
C558        C  0.49976272  0.60785784  0.37823806     0.36400
C559        C  0.49529534  0.62984156  0.39869039    -0.25800
C560        C  0.49995012  0.65509746  0.38657913     0.02900
C561        C  0.50889105  0.65851850  0.35309191     0.27700
C562        C  0.51319888  0.63652586  0.33241797    -0.24900
N563        N  0.49437539  0.58220515  0.39116458    -0.82300
H564        H  0.48835139  0.62729294  0.42438959     0.13500
C565        C  0.49637483  0.67762435  0.40985950     0.02800
N566        N  0.51363867  0.68432105  0.34033216    -0.80800
H567        H  0.52010138  0.63917332  0.30672805     0.18300
C568        C  0.51841654  0.69085856  0.42195360    -0.25700
C569        C  0.51624997  0.71080820  0.44606233     0.36300
C570        C  0.49127585  0.71840533  0.45756346    -0.19700
C571        C  0.46918359  0.70533383  0.44527424    -0.25000
C572        C  0.47146276  0.68500952  0.42150380     0.27700
H573        H  0.53760157  0.68497265  0.41347144     0.13500
N574        N  0.54138863  0.71916813  0.95981664    -0.82200
H575        H  0.45014172  0.71105399  0.45442854     0.18300
N576        N  0.44865573  0.67178692  0.40918689    -0.80800
H577        H  0.55134789  0.70381334  0.97144643     0.33900
H578        H  0.53769603  0.73266617  0.97889380     0.38400
H579        H  0.43186439  0.67947861  0.42030401     0.33900
H580        H  0.44725098  0.67554771  0.38323175     0.30600
H581        H  0.52027808  0.68355812  0.31534215     0.33900
H582        H  0.49579322  0.69411519  0.33982783     0.30600
H583        H  0.47906605  0.57442717  0.37690299     0.38500
H584        H  0.48778429  0.58314829  0.41617295     0.34000
C585        C  0.21699821  0.02516302  0.03104878    -0.19800
C586        C  0.19933773  0.00420730  0.03134685     0.36400
C587        C  0.17938109  0.00358355  0.05529222    -0.25800
C588        C  0.17682139  0.02362709  0.07894702     0.02900
C589        C  0.19528089  0.04397524  0.08005543     0.27700
C590        C  0.21546729  0.04449792  0.05595549    -0.24900
N591        N  0.19830079  0.98535656  0.50490929    -0.82300
H592        H  0.16535572  0.98776736  0.05483972     0.13500
C593        C  0.15406550  0.02296754  0.10147961     0.02800
N594        N  0.19315773  0.06409463  0.10513830    -0.80800
H595        H  0.22907057  0.06066265  0.05538395     0.18300
C596        C  0.15565935  0.00884995  0.13171518    -0.25700
C597        C  0.13334540  0.00432218  0.15139518     0.36300
C598        C  0.10910020  0.01409602  0.14029511    -0.19700
C599        C  0.10779061  0.02909482  0.11061155    -0.25000
C600        C  0.13005956  0.03340730  0.09083009     0.27700
H601        H  0.17424650  0.00079491  0.13943919     0.13500
N602        N  0.13519647  0.98989886  0.18251788    -0.82200
H603        H  0.08916823  0.03668443  0.10223815     0.18300
N604        N  0.12824795  0.04732223  0.05929294    -0.80800
H605        H  0.15440671  0.98398692  0.18683746     0.33900
H606        H  0.13035186  0.00255801  0.20222672     0.38400
H607        H  0.10904155  0.05315633  0.05476960     0.33900
H608        H  0.13927353  0.06435954  0.06157330     0.30600
H609        H  0.20844827  0.07744573  0.10261341     0.33900
H610        H  0.17597119  0.07437781  0.10043812     0.30600
H611        H  0.19987298  0.96703183  0.51630771     0.38500
H612        H  0.18052663  0.98605991  0.49198929     0.34000
C613        C  0.29034316  0.02639907  0.45163544    -0.19800
C614        C  0.30070221  0.04318948  0.42684845     0.34800
C615        C  0.32061407  0.03418237  0.40565199    -0.25800
C616        C  0.32974450  0.00851384  0.40822255     0.02900
C617        C  0.32041253  0.99219234  0.43429570     0.27700
C618        C  0.30100392  0.00150980  0.45620184    -0.24900
N619        N  0.28997699  0.06880272  0.42222918    -0.82300
H620        H  0.32818683  0.04676806  0.38590720     0.13500
C621        C  0.34755608  0.99864720  0.38173977     0.02800
N622        N  0.32955204  0.96582957  0.43714186    -0.80800
H623        H  0.29260228  0.98854428  0.47493937     0.18300
C624        C  0.37250931  0.99001719  0.39059409    -0.25700
C625        C  0.39055342  0.98262107  0.36562718     0.36300
C626        C  0.38343990  0.98429160  0.33099395    -0.19700
C627        C  0.35796407  0.99180140  0.32246309    -0.25000
C628        C  0.33989694  0.99875492  0.34747057     0.27700
H629        H  0.37815610  0.98981697  0.41702948     0.13500
N630        N  0.41643339  0.97493770  0.37535122    -0.82200
H631        H  0.35230848  0.99287225  0.29606744     0.18300
N632        N  0.31389871  0.00641773  0.33823688    -0.80800
H633        H  0.41890314  0.97656077  0.40153833     0.33900
H634        H  0.41835814  0.95514279  0.36975402     0.38400
H635        H  0.31141935  0.00564465  0.31199097     0.33900
H636        H  0.30104247  0.99275467  0.34862913     0.30600
H637        H  0.32061879  0.95640993  0.45756639     0.33900
H638        H  0.32371179  0.95588890  0.41533208     0.30600
H639        H  0.29379515  0.07945368  0.44419412     0.38500
H640        H  0.29942300  0.07851003  0.40243238     0.34000
C641        C  0.27772975  0.02691122  0.02846606    -0.19800
C642        C  0.29598981  0.04690707  0.03410412     0.36400
C643        C  0.31536980  0.04362499  0.05874933    -0.25800
C644        C  0.31700269  0.02065419  0.07793332     0.02900
C645        C  0.29784214  0.00112019  0.07360830     0.27700
C646        C  0.27820245  0.00455243  0.04895101    -0.24900
N647        N  0.29443088  0.07045274  0.51305984    -0.82300
H648        H  0.32969919  0.05887064  0.06258736     0.13500
C649        C  0.33983548  0.01731513  0.10086154     0.02800
N650        N  0.29888570  0.97764070  0.09340355    -0.80800
H651        H  0.26395238  0.98933753  0.04458146     0.18300
C652        C  0.33630839  0.01366871  0.13578620    -0.25700
C653        C  0.35776810  0.01323424  0.15821633     0.36300
C654        C  0.38328087  0.01751687  0.14544063    -0.19700
C655        C  0.38659316  0.01998625  0.11020728    -0.25000
C656        C  0.36533029  0.01949582  0.08790149     0.27700
H657        H  0.31670738  0.01164787  0.14563607     0.13500
N658        N  0.35352646  0.00903425  0.19377336    -0.82200
H659        H  0.40598022  0.02227565  0.09977767     0.18300
N660        N  0.36947872  0.02141866  0.05197009    -0.80800
H661        H  0.33360281  0.00763830  0.19901335     0.33900
H662        H  0.36144307  0.99086702  0.19987237     0.38400
H663        H  0.38934595  0.02299973  0.04646499     0.33900
H664        H  0.36306259  0.00399482  0.04109202     0.30600
H665        H  0.28335681  0.96533158  0.08717780     0.33900
H666        H  0.31595668  0.96778716  0.08683408     0.30600
H667        H  0.27688955  0.07979798  0.51874744     0.38500
H668        H  0.30940623  0.08329652  0.51971469     0.34000
C669        C  0.89371090  0.99559859  0.34497596    -0.19800
C670        C  0.89015925  0.98255909  0.37609082     0.36400
C671        C  0.86480172  0.97951100  0.38905714    -0.25800
C672        C  0.84293044  0.98868635  0.37124090     0.02900
C673        C  0.84644766  0.00066102  0.33943799     0.27700
C674        C  0.87181580  0.00427629  0.32683584    -0.24900
N675        N  0.91228777  0.97379110  0.39528637    -0.82300
H676        H  0.86212770  0.97070559  0.41376223     0.13500
C677        C  0.81707688  0.98833794  0.38824936     0.02800
N678        N  0.82425069  0.00932657  0.32030726    -0.80800
H679        H  0.87455640  0.01386701  0.30263290     0.18300
C680        C  0.80448919  0.01211655  0.39427798    -0.25700
C681        C  0.78363702  0.01384410  0.41699803     0.36300
C682        C  0.77502929  0.99113617  0.43403129    -0.19700
C683        C  0.78595353  0.96698593  0.42554751    -0.25000
C684        C  0.80683419  0.96532421  0.40260080     0.27700
H685        H  0.81223795  0.02989457  0.38336493     0.13500
N686        N  0.77338446  0.03926062  0.42430149    -0.82200
H687        H  0.77978042  0.95061380  0.93996550     0.18300
N688        N  0.81860020  0.94060698  0.39518064    -0.80800
H689        H  0.76510399  0.04645424  0.40203600     0.33900
H690        H  0.75833688  0.03835061  0.44202678     0.38400
H691        H  0.80895080  0.92562619  0.40806031     0.33900
H692        H  0.81598822  0.93707806  0.36934345     0.30600
H693        H  0.83016579  0.01778082  0.29746871     0.33900
H694        H  0.81325368  0.99285725  0.31404972     0.30600
H695        H  0.92070706  0.95832115  0.38209774     0.38500
H696        H  0.90633773  0.96618129  0.41860902     0.34000
C697        C  0.70876490  0.00679126  0.02552644    -0.19800
C698        C  0.68740994  0.98949864  0.02546752     0.36400
C699        C  0.66717623  0.99285910  0.04909139    -0.25800
C700        C  0.66830753  0.01281541  0.07331439     0.02900
C701        C  0.68922544  0.03057771  0.07279850     0.27700
C702        C  0.70903831  0.02755401  0.04867246    -0.24900
N703        N  0.68685572  0.96771610  0.00293183    -0.82300
H704        H  0.65107210  0.97917897  0.04948116     0.13500
C705        C  0.64814823  0.01427585  0.10008141     0.02800
N706        N  0.69034099  0.05150264  0.09690921    -0.80800
H707        H  0.72541658  0.04091395  0.04877616     0.18300
C708        C  0.65415187  0.00542387  0.13273945    -0.25700
C709        C  0.63566461  0.00644869  0.15898840     0.36300
C710        C  0.61036148  0.01617105  0.15220123    -0.19700
C711        C  0.60469471  0.02551764  0.11945973    -0.25000
C712        C  0.62334926  0.02467509  0.09339146     0.27700
H713        H  0.67342501  0.99770413  0.13771706     0.13500
N714        N  0.64258767  0.99771139  0.19240256    -0.82200
H715        H  0.58542650  0.03297542  0.11389192     0.18300
N716        N  0.61716812  0.03404589  0.06004084    -0.80800
H717        H  0.66175505  0.99084250  0.19290483     0.33900
H718        H  0.64203849  0.01390123  0.20840352     0.38400
H719        H  0.59800987  0.04091024  0.05915893     0.33900
H720        H  0.62924023  0.05002913  0.05507798     0.30600
H721        H  0.70660623  0.06330155  0.09239942     0.33900
H722        H  0.69305603  0.04330941  0.12088468     0.30600
H723        H  0.66988278  0.96899120  0.98836332     0.38500
H724        H  0.68574838  0.95070597  0.01743973     0.34000
C725        C  0.71525667  0.99400116  0.44720644    -0.19800
C726        C  0.69611980  0.01346151  0.44303645     0.36400
C727        C  0.67553978  0.00942541  0.42003030    -0.25800
C728        C  0.67397774  0.98656611  0.40071208     0.02900
C729        C  0.69341798  0.96741259  0.40419499     0.27700
C730        C  0.71391937  0.97138010  0.42730640    -0.24900
N731        N  0.69760945  0.03718581  0.46215335    -0.82300
H732        H  0.66058463  0.02413189  0.41712418     0.13500
C733        C  0.65127858  0.98257201  0.37791846     0.02800
N734        N  0.69193318  0.94381719  0.38476006    -0.80800
H735        H  0.72848718  0.95638117  0.43072906     0.18300
C736        C  0.65450720  0.98416665  0.34274239    -0.25700
C737        C  0.63307513  0.98178156  0.32054728     0.36300
C738        C  0.60783789  0.97695170  0.33393723    -0.19700
C739        C  0.60503383  0.97475708  0.36934492    -0.25000
C740        C  0.62637708  0.97763217  0.39134301     0.27700
H741        H  0.67377688  0.98795063  0.33263851     0.13500
N742        N  0.63704535  0.98425571  0.28466150    -0.82200
H743        H  0.58596069  0.97120814  0.38015345     0.18300
N744        N  0.62287742  0.97572900  0.42737799    -0.80800
H745        H  0.65691466  0.98568293  0.27908793     0.33900
H746        H  0.62884910  0.00196797  0.27711747     0.38400
H747        H  0.60331952  0.97226426  0.43329662     0.33900
H748        H  0.63330797  0.95947953  0.43579044     0.30600
H749        H  0.70778789  0.93174616  0.39019627     0.33900
H750        H  0.67522672  0.93374847  0.39248521     0.30600
H751        H  0.71424969  0.04813599  0.95490013     0.38500
H752        H  0.68187885  0.04928489  0.45648496     0.34000
C753        C  0.97736722  0.21209049  0.46469184    -0.19800
C754        C  0.99894295  0.19573487  0.45962260     0.36400
C755        C  0.99724824  0.17531482  0.43612070    -0.25800
C756        C  0.97438283  0.17126988  0.41724946     0.02900
C757        C  0.95232974  0.18687070  0.42352700     0.27700
C758        C  0.95404401  0.20706757  0.44733247    -0.24900
N759        N  0.02308857  0.20090549  0.47651201    -0.82300
H760        H  0.01421373  0.16330786  0.43144541     0.13500
C761        C  0.97436400  0.15204057  0.38927434     0.02800
N762        N  0.92875329  0.18298982  0.40449410    -0.80800
H763        H  0.93760585  0.22000013  0.45091066     0.18300
C764        C  0.95700034  0.13096851  0.39015768    -0.25700
C765        C  0.95628098  0.11252328  0.36386549     0.36300
C766        C  0.97365969  0.11508506  0.33612363    -0.19700
C767        C  0.99059909  0.13670536  0.33514451    -0.25000
C768        C  0.99104002  0.15519580  0.36125800     0.27700
H769        H  0.94399878  0.12889114  0.41160210     0.13500
N770        N  0.93815969  0.09117590  0.36561949    -0.82200
H771        H  0.00394307  0.13910262  0.31413226     0.18300
N772        N  0.00836952  0.17720778  0.35946427    -0.80800
H773        H  0.92754193  0.09174841  0.38818844     0.33900
H774        H  0.92466647  0.09366789  0.34604749     0.38400
H775        H  0.01954225  0.17656995  0.33735631     0.33900
H776        H  0.99691895  0.19398948  0.35785424     0.30600
H777        H  0.91436041  0.19606790  0.41226472     0.33900
H778        H  0.93280381  0.18733531  0.37916876     0.30600
H779        H  0.02822894  0.18427389  0.49026456     0.38500
H780        H  0.03739409  0.20409588  0.45812208     0.34000
C781        C  0.99151821  0.22381720  0.04099099    -0.19800
C782        C  0.97245558  0.20557656  0.05164831     0.36400
C783        C  0.97905660  0.18661795  0.07575710    -0.25800
C784        C  0.00410504  0.18556655  0.08991419     0.02900
C785        C  0.02289419  0.20417309  0.08013876     0.27700
C786        C  0.01638498  0.22314736  0.05580218    -0.24900
N787        N  0.94607778  0.20617980  0.03948225    -0.82300
H788        H  0.96449987  0.17247517  0.08344855     0.13500
C789        C  0.01053605  0.16427636  0.11404748     0.02800
N790        N  0.04851498  0.20356205  0.09482012    -0.80800
H791        H  0.03089461  0.23717018  0.04768613     0.18300
C792        C  0.02851190  0.14519096  0.10441236    -0.25700
C793        C  0.03365817  0.12354381  0.12524020     0.36300
C794        C  0.02013729  0.12069630  0.15639629    -0.19700
C795        C  0.00306744  0.14060762  0.16662035    -0.25000
C796        C  0.99815764  0.16233082  0.14577902     0.27700
H797        H  0.03818515  0.14696164  0.08013233     0.13500
N798        N  0.05234110  0.10439354  0.11455715    -0.82200
H799        H  0.99281937  0.13885842  0.19048090     0.18300
N800        N  0.98035856  0.18227321  0.15644294    -0.80800
H801        H  0.06001772  0.10914927  0.09081648     0.33900
H802        H  0.06790879  0.10496995  0.13162336     0.38400
H803        H  0.97278126  0.17793276  0.18036316     0.33900
H804        H  0.99100618  0.19954130  0.15900477     0.30600
H805        H  0.06007040  0.21850295  0.08483918     0.33900
H806        H  0.04655293  0.20734033  0.12069167     0.30600
H807        H  0.94254810  0.22248031  0.02439349     0.38500
H808        H  0.94317128  0.18963249  0.02454960     0.34000
C809        C  0.99433084  0.28438787  0.04657700    -0.19800
C810        C  0.01412633  0.30338543  0.04487349     0.36400
C811        C  0.01457418  0.32360115  0.06862748    -0.25800
C812        C  0.99563050  0.32513638  0.09408822     0.02900
C813        C  0.97707905  0.30491169  0.09746543     0.27700
C814        C  0.97666640  0.28457405  0.07360507    -0.24900
N815        N  0.03274711  0.30283896  0.01770368    -0.82300
H816        H  0.02876354  0.33912282  0.06596137     0.13500
C817        C  0.99374800  0.34952490  0.11407698     0.02800
N818        N  0.95807383  0.30580726  0.12414516    -0.80800
H819        H  0.96138204  0.26999712  0.07460919     0.18300
C820        C  0.97066606  0.36407062  0.11237737    -0.25700
C821        C  0.96866353  0.38850333  0.12805624     0.36300
C822        C  0.99018969  0.39852719  0.14622808    -0.19700
C823        C  0.01339171  0.38405269  0.14763255    -0.25000
C824        C  0.01535723  0.35961468  0.13184637     0.27700
H825        H  0.95437262  0.35665344  0.09781204     0.13500
N826        N  0.94507618  0.40340320  0.12486211    -0.82200
H827        H  0.02990833  0.39160324  0.16164264     0.18300
N828        N  0.03915833  0.34496078  0.13379666    -0.80800
H829        H  0.93111879  0.39317276  0.11088566     0.33900
H830        H  0.94950896  0.42018811  0.11096088     0.38400
H831        H  0.05323829  0.35514654  0.14762249     0.33900
H832        H  0.03520130  0.32784956  0.14724146     0.30600
H833        H  0.94565810  0.28966639  0.12285789     0.33900
H834        H  0.96808748  0.30439760  0.14712104     0.30600
H835        H  0.04369797  0.28580783  0.02038299     0.38500
H836        H  0.04580893  0.31841332  0.01971405     0.34000
C837        C  0.02400042  0.80066635  0.02886983    -0.19800
C838        C  0.00588423  0.82120172  0.02812454     0.36400
C839        C  0.00968539  0.84287159  0.04924441    -0.25800
C840        C  0.03123242  0.84406802  0.07114587     0.02900
C841        C  0.05060692  0.82457789  0.06939942     0.27700
C842        C  0.04662379  0.80307158  0.04849936    -0.24900
N843        N  0.98276347  0.81926708  0.00799031    -0.82300
H844        H  0.99483794  0.85783286  0.05035134     0.13500
C845        C  0.03110173  0.86303509  0.09922496     0.02800
N846        N  0.07414309  0.82559716  0.08913371    -0.80800
H847        H  0.06081426  0.78745181  0.04873646     0.18300
C848        C  0.02880998  0.85351937  0.13241404    -0.25700
C849        C  0.02924973  0.87041069  0.16016286     0.36300
C850        C  0.03188739  0.89739097  0.15476320    -0.19700
C851        C  0.03418890  0.90691935  0.12143922    -0.25000
C852        C  0.03369969  0.88995914  0.09354418     0.27700
H853        H  0.02681347  0.83275897  0.13677567     0.13500
N854        N  0.02748078  0.86003248  0.19376555    -0.82200
H855        H  0.03580142  0.92770709  0.11710120     0.18300
N856        N  0.03576095  0.89988520  0.05960799    -0.80800
H857        H  0.04285514  0.84695466  0.19722713     0.33900
H858        H  0.01001831  0.84961768  0.19571590     0.38400
H859        H  0.03737030  0.92018913  0.05981166     0.33900
H860        H  0.05309019  0.89276625  0.04927739     0.30600
H861        H  0.07305875  0.81092278  0.10746608     0.33900
H862        H  0.07619606  0.84332526  0.10174819     0.30600
H863        H  0.98237005  0.83520222  0.99147922     0.38500
H864        H  0.96664244  0.82061927  0.02404781     0.34000
C865        C  0.98975209  0.88961868  0.33786851    -0.19800
C866        C  0.99888678  0.86546355  0.32504704     0.36400
C867        C  0.00208833  0.84413459  0.34725029    -0.25800
C868        C  0.99669517  0.84638773  0.38187055     0.02900
C869        C  0.98733512  0.87012388  0.39469488     0.27700
C870        C  0.98392969  0.89137909  0.37268899    -0.24900
N871        N  0.00484589  0.86245937  0.28972005    -0.82300
H872        H  0.00928027  0.82574365  0.33765712     0.13500
C873        C  0.00163411  0.82409400  0.40493790     0.02800
N874        N  0.98171865  0.87263542  0.43020467    -0.80800
H875        H  0.97700019  0.90959217  0.38310442     0.18300
C876        C  0.02514578  0.82311655  0.42293278    -0.25700
C877        C  0.02956200  0.80367294  0.44731510     0.36300
C878        C  0.00982141  0.78536220  0.45479762    -0.19700
C879        C  0.98682943  0.78559188  0.43548014    -0.25000
C880        C  0.98265382  0.80463560  0.41056948     0.27700
H881        H  0.04003804  0.83768102  0.41825989     0.13500
N882        N  0.05424703  0.80236604  0.46410939    -0.82200
H883        H  0.97162887  0.77150085  0.44067888     0.18300
N884        N  0.95876279  0.80419304  0.39184623    -0.80800
H885        H  0.06864926  0.79984688  0.44570221     0.33900
H886        H  0.05761691  0.82027922  0.47589507     0.38400
H887        H  0.96330260  0.80268804  0.36612546     0.33900
H888        H  0.94911767  0.82184836  0.39570794     0.30600
H889        H  0.97532732  0.89147635  0.43575746     0.33900
H890        H  0.96622028  0.86011615  0.43583036     0.30600
H891        H  0.02185739  0.87304940  0.28486104     0.38500
H892        H  0.00927509  0.84304722  0.28423090     0.34000
C893        C  0.00052853  0.72476899  0.45513444    -0.19800
C894        C  0.97816433  0.70865865  0.45615237     0.36400
C895        C  0.97687139  0.68660876  0.43556929    -0.25800
C896        C  0.99749223  0.68030986  0.41389606     0.02900
C897        C  0.01847501  0.69796993  0.41011995     0.27700
C898        C  0.01985414  0.72000981  0.43089408    -0.24900
N899        N  0.95675479  0.71398633  0.47836053    -0.82300
H900        H  0.96029733  0.67359537  0.43778033     0.13500
C901        C  0.99743507  0.65448795  0.39737888     0.02800
N902        N  0.03865440  0.69384408  0.38567737    -0.80800
H903        H  0.03694266  0.73241840  0.42973520     0.18300
C904        C  0.97889864  0.64894245  0.37232895    -0.25700
C905        C  0.97790786  0.62425633  0.35696748     0.36300
C906        C  0.99586164  0.60491464  0.36703655    -0.19700
C907        C  0.01411349  0.61041162  0.39243552    -0.25000
C908        C  0.01476005  0.63486521  0.40803677     0.27700
H909        H  0.96535579  0.66399545  0.36460876     0.13500
N910        N  0.95968333  0.61920723  0.33010822    -0.82200
H911        H  0.02791361  0.59560306  0.40024420     0.18300
N912        N  0.03278300  0.63962116  0.43504726    -0.80800
H913        H  0.94890125  0.63594482  0.32456348     0.33900
H914        H  0.94633957  0.60536834  0.33890030     0.38400
H915        H  0.02902902  0.62613339  0.45429927     0.33900
H916        H  0.05159998  0.63613592  0.42598784     0.30600
H917        H  0.04809660  0.67633346  0.39101957     0.33900
H918        H  0.02997251  0.69230185  0.36181777     0.30600
H919        H  0.96313913  0.71314348  0.50341978     0.38500
H920        H  0.95015153  0.73286180  0.47338764     0.34000
N921        N  0.01157185  0.76850145  0.98258835    -0.03400
C922        C  0.00575071  0.74267859  0.98329975    -0.00800
C923        C  0.01108340  0.73174204  0.51601044    -0.23700
C924        C  0.01870435  0.75211626  0.53596479    -0.23900
C925        C  0.01899929  0.77390393  0.51546602    -0.00900
H926        H  0.00913596  0.71162608  0.52386808     0.12900
H927        H  0.02304926  0.75128761  0.56275672     0.12900
N928        N  0.98697494  0.24263096  0.51377129    -0.03400
C929        C  0.98980752  0.26888824  0.51570318    -0.00800
C930        C  0.98245782  0.28007400  0.98551387    -0.23700
C931        C  0.97687643  0.26015504  0.96366945    -0.23900
C932        C  0.97966353  0.23732140  0.98182145    -0.00900
H933        H  0.98206879  0.30067720  0.97969605     0.12900
H934        H  0.97178954  0.26204719  0.93719116     0.12900
N935        N  0.73562066  0.99736839  0.97226854    -0.03400
C936        C  0.76160082  0.99433045  0.96702306    -0.00800
C937        C  0.77537939  0.99599298  0.49664838    -0.23700
C938        C  0.75747131  0.00106153  0.52143091    -0.23900
C939        C  0.73322055  0.00115892  0.50609804    -0.00900
H940        H  0.79633001  0.99530413  0.49969577     0.12900
H941        H  0.76169531  0.00454566  0.54788309     0.12900
N942        N  0.25895031  0.02895169  0.50038856    -0.03400
C943        C  0.23260364  0.02939367  0.50187917    -0.00800
C944        C  0.22347395  0.03282316  0.96914918    -0.23700
C945        C  0.24437145  0.03438995  0.94761426    -0.23900
C946        C  0.26643614  0.03166724  0.96736839    -0.00900
H947        H  0.20309915  0.03338563  0.96209486     0.12900
H948        H  0.24352422  0.03565552  0.92028890     0.12900
N949        N  0.49004440  0.73721843  0.98258653    -0.03400
C950        C  0.49367032  0.76328407  0.97897256    -0.00800
C951        C  0.48608175  0.77748935  0.50844970    -0.23700
C952        C  0.48020998  0.75882024  0.53203041    -0.23900
C953        C  0.48113113  0.73513137  0.51552725    -0.00900
H954        H  0.48655319  0.79830547  0.51269116     0.12900
H955        H  0.47649942  0.76220060  0.55861189     0.12900
N956        N  0.50751942  0.26169631  0.51072933    -0.03400
C957        C  0.50535464  0.23546597  0.51398458    -0.00800
C958        C  0.51870531  0.22349721  0.98672422    -0.23700
C959        C  0.52680092  0.24257719  0.96486568    -0.23900
C960        C  0.52175634  0.26609313  0.98048015    -0.00900
H961        H  0.51968856  0.20270544  0.98243975     0.12900
H962        H  0.53458840  0.23962464  0.93971456     0.12900
N963        N  0.23088695  0.51062911  0.52421850    -0.03400
C964        C  0.25695021  0.50662725  0.52524405    -0.00800
C965        C  0.26840905  0.51590951  0.99698930    -0.23700
C966        C  0.24854089  0.52449432  0.97673537    -0.23900
C967        C  0.22580148  0.52099801  0.99488848    -0.00900
H968        H  0.28895419  0.51604878  0.99080141     0.12900
H969        H  0.25035276  0.53175822  0.95110768     0.12900
N970        N  0.75427979  0.49896080  0.99091327    -0.03400
C971        C  0.72921470  0.49108428  0.98661226    -0.00800
C972        C  0.71698094  0.48771375  0.51727786    -0.23700
C973        C  0.73509754  0.49252838  0.54193780    -0.23900
C974        C  0.75795789  0.49943206  0.52561828    -0.00900
H975        H  0.69678106  0.48245507  0.52128886     0.12900
H976        H  0.73202276  0.49055273  0.56891207     0.12900
O977        O  0.48224918  0.51208389  0.68878203    -0.88300
C978        C  0.46446502  0.54172003  0.78102608     0.87800
Mg979      Mg  0.47396620  0.47249147  0.67463917     1.58100
O980        O  0.53100859  0.53367266  0.76612125    -0.88000
O981        O  0.51416136  0.54072728  0.69064457    -0.75300
C982        C  0.52141205  0.40657110  0.80456711     0.92800
O983        O  0.43594686  0.49657231  0.73904856    -0.75100
O984        O  0.50539236  0.40375731  0.78026209    -0.82700
Mg985      Mg  0.45082441  0.53310158  0.71110544     1.58000
C986        C  0.57874222  0.49813427  0.83237017     0.92700
O987        O  0.46291932  0.56936484  0.68131734    -0.80900
H988        H  0.56180281  0.53993193  0.73620799    -0.06300
C989        C  0.49445892  0.47478144  0.81636511     0.87700
O990        O  0.51679744  0.46169828  0.68343769    -0.75400
O991        O  0.47492666  0.54274174  0.75284847    -0.88200
O992        O  0.56304203  0.51737053  0.83141515    -0.81000
C993        C  0.51346366  0.58772023  0.82108106     0.92800
C994        C  0.47554622  0.59051498  0.68478895     0.92700
Mg995      Mg  0.54456310  0.46519118  0.77860124     1.58000
O996        O  0.53465261  0.42749198  0.80794674    -0.80900
O997        O  0.55761482  0.50225506  0.75073103    -0.75200
O998        O  0.50636058  0.58858106  0.79005529    -0.81000
O999        O  0.42363863  0.52340908  0.66887312    -0.82700
O1000       O  0.48530524  0.40914560  0.70271272    -0.81000
C1001       C  0.55071223  0.52604982  0.75095976     0.87100
O1002       O  0.51938866  0.45494620  0.73799547    -0.88200
O1003       O  0.51333874  0.48549993  0.80265645    -0.88300
O1004       O  0.48111185  0.45733317  0.80146562    -0.75300
Mg1005     Mg  0.50990163  0.56343155  0.74101244     1.58000
O1006       O  0.52380134  0.56737258  0.83385264    -0.82700
H1007       H  0.50793304  0.51627430  0.65106031    -0.06400
O1008       O  0.46317363  0.46511320  0.72608859    -0.88000
H1009       H  0.43153016  0.45912034  0.75462264    -0.06300
H1010       H  0.54972689  0.44949257  0.70705881    -0.06400
C1011       C  0.44302825  0.47282937  0.74012933     0.87100
C1012       C  0.50147140  0.52273492  0.67568994     0.87700
C1013       C  0.52944528  0.45481413  0.70957235     0.87700
H1014       H  0.48869155  0.48096254  0.84140525    -0.06400
O1015       O  0.47690786  0.53448619  0.80719749    -0.75400
Mg1016     Mg  0.48415062  0.43505993  0.75111329     1.58000
H1017       H  0.44396900  0.54624954  0.78323096    -0.06400
C1018       C  0.41684910  0.50131025  0.65761233     0.92700
O1019       O  0.46740535  0.43027739  0.65933251    -0.82700
C1020       C  0.47641550  0.40946945  0.67246172     0.92800
O1021       O  0.48915892  0.59488072  0.71111116    -0.82700
Mg1022     Mg  0.51994906  0.52511841  0.81719280     1.58200
O1023       O  0.43114472  0.48121266  0.66105667    -0.81000
O1024       O  0.57302934  0.47629316  0.81914077    -0.82700
O1025       O  0.50957867  0.01228049  0.68173864    -0.88300
C1026       C  0.54155241  0.02843930  0.77299089     0.87800
Mg1027     Mg  0.46994342  0.02129374  0.66947789     1.58100
O1028       O  0.52774833  0.96242871  0.75921204    -0.88000
O1029       O  0.53563840  0.97842430  0.68295820    -0.75300
C1030       C  0.40396233  0.98084008  0.80427039     0.92800
O1031       O  0.49659137  0.05852753  0.73228558    -0.75100
O1032       O  0.40041917  0.99444589  0.77766363    -0.82700
Mg1033     Mg  0.53234060  0.04280758  0.70351982     1.58000
C1034       C  0.49185183  0.91776945  0.83049535     0.92700
O1035       O  0.56917246  0.03016620  0.67362377    -0.80900
H1036       H  0.53169373  0.93021317  0.73129805    -0.06300
C1037       C  0.47302385  0.00303845  0.81136543     0.87700
O1038       O  0.45803308  0.97888732  0.68055711    -0.75400
O1039       O  0.54143281  0.01792830  0.74483899    -0.88200
O1040       O  0.51179191  0.93222795  0.82623856    -0.81000
C1041       C  0.58467188  0.97546222  0.81164554     0.92800
C1042       C  0.58938200  0.01597691  0.67765089     0.92700
Mg1043     Mg  0.45954106  0.95252320  0.77723219     1.58000
O1044       O  0.42421382  0.96680003  0.80805816    -0.80900
O1045       O  0.49486901  0.93614092  0.74833993    -0.75200
O1046       O  0.58509132  0.98275929  0.78073568    -0.81000
O1047       O  0.52238921  0.07106613  0.66186894    -0.82700
O1048       O  0.40599337  0.01177237  0.69857061    -0.81000
C1049       C  0.51884175  0.94238776  0.74605371     0.87100
O1050       O  0.45033182  0.97705422  0.73515592    -0.88200
O1051       O  0.48237252  0.98337134  0.79796556    -0.88300
O1052       O  0.45579526  0.01683297  0.79667429    -0.75300
Mg1053     Mg  0.55882050  0.98127016  0.73279460     1.58000
O1054       O  0.56375042  0.96716587  0.82526766    -0.82700
H1055       H  0.51169207  0.98687426  0.64353301    -0.06400
O1056       O  0.46352449  0.03267849  0.72073285    -0.88000
H1057       H  0.45979347  0.06454111  0.74935731    -0.06300
H1058       H  0.44483856  0.94649151  0.70464449    -0.06400
C1059       C  0.47256953  0.05245399  0.73436734     0.87100
C1060       C  0.51875534  0.99259065  0.66821587     0.87700
C1061       C  0.45050050  0.96670774  0.70687285     0.87700
H1062       H  0.48011855  0.00898971  0.83593850    -0.06400
O1063       O  0.53387825  0.01655068  0.79940313    -0.75400
Mg1064     Mg  0.43249143  0.01351590  0.74685413     1.58000
H1065       H  0.54747583  0.04859769  0.77497351    -0.06400
C1066       C  0.50013578  0.07825468  0.65125535     0.92700
O1067       O  0.42779096  0.02826600  0.65488536    -0.82700
C1068       C  0.40673151  0.01961786  0.66784323     0.92800
O1069       O  0.59121913  0.99999679  0.70221745    -0.82700
Mg1070     Mg  0.52176757  0.97435935  0.81057410     1.58200
O1071       O  0.47992684  0.06396418  0.65487716    -0.81000
O1072       O  0.46946287  0.92450959  0.81977892    -0.82700
O1073       O  0.01956841  0.99407875  0.68964716    -0.88300
C1074       C  0.03628223  0.96217373  0.78097319     0.87800
Mg1075     Mg  0.02588256  0.03403213  0.67754937     1.58100
O1076       O  0.96980772  0.96993398  0.76419488    -0.88000
O1077       O  0.98815018  0.96499706  0.68889823    -0.75300
C1078       C  0.97623248  0.09487448  0.81007332     0.92800
O1079       O  0.06460124  0.00962718  0.74210180    -0.75100
O1080       O  0.99226423  0.09886240  0.78598713    -0.82700
Mg1081     Mg  0.05158830  0.97359990  0.71210122     1.58000
C1082       C  0.91986403  0.00124826  0.83144101     0.92700
O1083       O  0.04130395  0.93770289  0.68013313    -0.80900
H1084       H  0.93923109  0.96353204  0.73393734    -0.06300
C1085       C  0.00452639  0.02708064  0.81872298     0.87700
O1086       O  0.98281447  0.04313246  0.68672358    -0.75400
O1087       O  0.02655270  0.96196793  0.75231586    -0.88200
O1088       O  0.93638535  0.98279760  0.82964569    -0.81000
C1089       C  0.98602985  0.91399420  0.81614415     0.92800
C1090       C  0.02892795  0.91626331  0.68281511     0.92700
Mg1091     Mg  0.95414564  0.03697808  0.78090854     1.58000
O1092       O  0.96344554  0.07361214  0.81237999    -0.80900
O1093       O  0.94196695  0.00075615  0.75071526    -0.75200
O1094       O  0.99451305  0.91466419  0.78577050    -0.81000
O1095       O  0.08017754  0.98613660  0.67194807    -0.82700
O1096       O  0.01294593  0.09639147  0.70796978    -0.81000
C1097       C  0.94980639  0.97728510  0.74945352     0.87100
O1098       O  0.97973096  0.04880190  0.74139187    -0.88200
O1099       O  0.98571469  0.01662157  0.80450157    -0.88300
O1100       O  0.01771747  0.04513748  0.80472231    -0.75300
Mg1101     Mg  0.99199064  0.94132956  0.73829165     1.58000
O1102       O  0.97543001  0.93387918  0.82953823    -0.82700
H1103       H  0.99512025  0.99039579  0.65050026    -0.06400
O1104       O  0.03653940  0.04045176  0.72935467    -0.88000
H1105       H  0.06760162  0.04685629  0.75880533    -0.06300
H1106       H  0.94944170  0.05396225  0.71027148    -0.06400
C1107       C  0.05677531  0.03310204  0.74358377     0.87100
C1108       C  0.00099546  0.98341888  0.67517941     0.87700
C1109       C  0.96985846  0.04920307  0.71287035     0.87700
H1110       H  0.01039201  0.02013026  0.84342115    -0.06400
O1111       O  0.02303693  0.96813471  0.80699098    -0.75400
Mg1112     Mg  0.01449638  0.06908481  0.75549551     1.58000
H1113       H  0.05680674  0.95797898  0.78381954    -0.06400
C1114       C  0.08456460  0.00872769  0.66004397     0.92700
O1115       O  0.03096888  0.07636983  0.66396032    -0.82700
C1116       C  0.02162257  0.09673088  0.67758554     0.92800
O1117       O  0.01423050  0.91138105  0.70798080    -0.82700
Mg1118     Mg  0.97962943  0.97647822  0.81615465     1.58200
O1119       O  0.06821773  0.02717751  0.66284363    -0.81000
O1120       O  0.92470830  0.02394691  0.82005590    -0.82700
O1121       O  0.98045732  0.48825528  0.69919888    -0.88300
C1122       C  0.94764870  0.47055011  0.79043471     0.87800
Mg1123     Mg  0.02006774  0.47910077  0.68626264     1.58100
O1124       O  0.96099691  0.53683049  0.77884290    -0.88000
O1125       O  0.95450726  0.52219615  0.70235482    -0.75300
C1126       C  0.08595722  0.52016146  0.82023715     0.92800
O1127       O  0.99276270  0.44069386  0.74842706    -0.75100
O1128       O  0.08853982  0.50429400  0.79577896    -0.82700
Mg1129     Mg  0.95729108  0.45744851  0.71998575     1.58000
C1130       C  0.99801610  0.58011927  0.84959144     0.92700
O1131       O  0.92131362  0.47169425  0.68982672    -0.80900
H1132       H  0.95631952  0.56953952  0.75201314    -0.06300
C1133       C  0.01604421  0.49530754  0.82906057     0.87700
O1134       O  0.03221445  0.52121248  0.69794666    -0.75400
O1135       O  0.94796144  0.48151374  0.76251475    -0.88200
O1136       O  0.97765533  0.56608379  0.84611327    -0.81000
C1137       C  0.90409900  0.52376956  0.83049988     0.92800
C1138       C  0.90157561  0.48644123  0.69391062     0.92700
Mg1139     Mg  0.02915969  0.54639167  0.79469071     1.58000
O1140       O  0.06546648  0.53384770  0.82343539    -0.80900
O1141       O  0.99354855  0.56309838  0.76709766    -0.75200
O1142       O  0.90346264  0.51689255  0.79938734    -0.81000
O1143       O  0.96724763  0.43015034  0.67701039    -0.82700
O1144       O  0.08334031  0.48772818  0.71689449    -0.81000
C1145       C  0.96952988  0.55708978  0.76589433     0.87100
O1146       O  0.03827420  0.52206893  0.75275845    -0.88200
O1147       O  0.00676304  0.51529531  0.81630376    -0.88300
O1148       O  0.03307415  0.48165179  0.81388674    -0.75300
Mg1149     Mg  0.93056462  0.51852042  0.75164191     1.58000
O1150       O  0.92523997  0.53095782  0.84464032    -0.82700
H1151       H  0.97867218  0.51524767  0.66272328    -0.06400
O1152       O  0.02596220  0.46655658  0.73740047    -0.88000
H1153       H  0.02960970  0.43409547  0.76504440    -0.06300
H1154       H  0.04501090  0.55309715  0.72334543    -0.06400
C1155       C  0.01684595  0.44655293  0.75048320     0.87100
C1156       C  0.97145121  0.50855718  0.68693153     0.87700
C1157       C  0.03906527  0.53291496  0.72481380     0.87700
H1158       H  0.00893898  0.48887138  0.85344297    -0.06400
O1159       O  0.95506181  0.48205052  0.81724244    -0.75400
Mg1160     Mg  0.05653928  0.48556299  0.76444257     1.58000
H1161       H  0.94168901  0.45037101  0.79189977    -0.06400
C1162       C  0.98924993  0.42339755  0.66509100     0.92700
O1163       O  0.06250532  0.47177736  0.67205304    -0.82700
C1164       C  0.08331674  0.47993904  0.68617165     0.92800
O1165       O  0.89884752  0.50080137  0.71986533    -0.82700
Mg1166     Mg  0.96732941  0.52406605  0.82963573     1.58200
O1167       O  0.00970242  0.43715562  0.66954671    -0.81000
O1168       O  0.01995368  0.57341426  0.83762892    -0.82700
C1169       C  0.78279014  0.50356893  0.54398467    -0.19800
C1170       C  0.78298326  0.51749544  0.57472248     0.36400
C1171       C  0.80463770  0.51598246  0.59610319    -0.25800
C1172       C  0.82649683  0.50123710  0.58707459     0.02900
C1173       C  0.82738654  0.48922677  0.55502588     0.27700
C1174       C  0.80533221  0.49020694  0.53390400    -0.24900
N1175       N  0.76091319  0.53272407  0.58470108    -0.82300
H1176       H  0.80395043  0.52558669  0.62049788     0.13500
C1177       C  0.84732644  0.49728942  0.61254892     0.02800
N1178       N  0.85043250  0.47561194  0.54450055    -0.80800
H1179       H  0.80533174  0.47928651  0.51052018     0.18300
C1180       C  0.85315763  0.47191449  0.62364188    -0.25700
C1181       C  0.87084494  0.46763761  0.65031736     0.36300
C1182       C  0.88246624  0.48920852  0.66633901    -0.19700
C1183       C  0.87686267  0.51448370  0.65492854    -0.25000
C1184       C  0.85973551  0.51873196  0.62785211     0.27700
H1185       H  0.84336390  0.45548688  0.61202578     0.13500
N1186       N  0.87657612  0.44166141  0.66166091    -0.82200
H1187       H  0.88636260  0.53098545  0.66680143     0.18300
N1188       N  0.85491959  0.54469617  0.61569524    -0.80800
H1189       H  0.86638944  0.42799615  0.64716178     0.33900
H1190       H  0.86967633  0.43986741  0.68645455     0.38400
H1191       H  0.86562308  0.55829254  0.62966117     0.33900
H1192       H  0.86179972  0.54573574  0.59081790     0.30600
H1193       H  0.84792486  0.46791449  0.52022789     0.33900
H1194       H  0.86547859  0.48930869  0.54272756     0.30600
H1195       H  0.76715084  0.55192536  0.58822436     0.38500
H1196       H  0.75424819  0.52566806  0.60799428     0.34000
C1197       C  0.77310396  0.50461889  0.96474292    -0.19800
C1198       C  0.78053557  0.48527470  0.94138529     0.36400
C1199       C  0.80042182  0.49058699  0.91782937    -0.25800
C1200       C  0.81298825  0.51485656  0.91719101     0.02900
C1201       C  0.80488494  0.53458124  0.93966888     0.27700
C1202       C  0.78508683  0.52918574  0.96341278    -0.24900
N1203       N  0.76845126  0.46003096  0.94255028    -0.82300
H1204       H  0.80677348  0.47548339  0.90059486     0.13500
C1205       C  0.83618615  0.51829983  0.89509495     0.02800
N1206       N  0.81675865  0.55993944  0.93824854    -0.80800
H1207       H  0.77910892  0.54400761  0.98125403     0.18300
C1208       C  0.83324165  0.52639288  0.86135668    -0.25700
C1209       C  0.85492473  0.52817761  0.83939998     0.36300
C1210       C  0.88012949  0.52224652  0.85180900    -0.19700
C1211       C  0.88285354  0.51444301  0.88579006    -0.25000
C1212       C  0.86118766  0.51209602  0.90735543     0.27700
H1213       H  0.81391098  0.53092931  0.85203479     0.13500
N1214       N  0.85143472  0.53658508  0.80497959    -0.82200
H1215       H  0.90200627  0.50953429  0.89541392     0.18300
N1216       N  0.86433765  0.50261826  0.94140371    -0.80800
H1217       H  0.83204161  0.54187706  0.80070199     0.33900
H1218       H  0.85496440  0.52056852  0.78936558     0.38400
H1219       H  0.88387515  0.49824564  0.94627683     0.33900
H1220       H  0.85924988  0.51760751  0.95797095     0.30600
H1221       H  0.80825565  0.57232951  0.95606568     0.33900
H1222       H  0.83631352  0.55799306  0.94515223     0.30600
H1223       H  0.77321000  0.45151657  0.96579648     0.38500
H1224       H  0.77610765  0.44795153  0.92375504     0.34000
C1225       C  0.71436601  0.49064699  0.95457289    -0.19800
C1226       C  0.69681424  0.47005946  0.94801548     0.36400
C1227       C  0.67788547  0.47306744  0.92279323    -0.25800
C1228       C  0.67627873  0.49613330  0.90395081     0.02900
C1229       C  0.69506590  0.51583924  0.90851850     0.27700
C1230       C  0.71405687  0.51290824  0.93391920    -0.24900
N1231       N  0.69760907  0.44665536  0.96804981    -0.82300
H1232       H  0.66350774  0.45787198  0.91887172     0.13500
C1233       C  0.65335678  0.49985577  0.88185113     0.02800
N1234       N  0.69414659  0.53903145  0.88816314    -0.80800
H1235       H  0.72841508  0.52927699  0.43936284     0.18300
C1236       C  0.63434536  0.51811787  0.89105771    -0.25700
C1237       C  0.61011780  0.51901807  0.87438176     0.36300
C1238       C  0.60476733  0.50077453  0.84847354    -0.19700
C1239       C  0.62459143  0.48359824  0.83814808    -0.25000
C1240       C  0.64882661  0.48306396  0.85445868     0.27700
H1241       H  0.63807215  0.53100161  0.91222029     0.13500
N1242       N  0.59070298  0.53748547  0.88481282    -0.82200
H1243       H  0.62103869  0.47013649  0.81756220     0.18300
N1244       N  0.66867423  0.46506455  0.84400428    -0.80800
H1245       H  0.59724923  0.54819169  0.90564863     0.33900
H1246       H  0.58843589  0.55091004  0.86510719     0.38400
H1247       H  0.66223514  0.45392203  0.82350783     0.33900
H1248       H  0.68454390  0.47600799  0.83535194     0.30600
H1249       H  0.70929026  0.55168156  0.89480410     0.33900
H1250       H  0.69747271  0.53352332  0.86306828     0.30600
H1251       H  0.71548227  0.43760283  0.96344287     0.38500
H1252       H  0.68311015  0.43360480  0.96034918     0.34000
C1253       C  0.10651373  0.52242196  0.84669694    -0.19800
C1254       C  0.12872665  0.50607583  0.84745017     0.36400
C1255       C  0.14555416  0.50701791  0.87548783    -0.25800
C1256       C  0.14098458  0.52408938  0.90248854     0.02900
C1257       C  0.11958184  0.54112198  0.90125532     0.27700
C1258       C  0.10264561  0.54017431  0.87341763    -0.24900
N1259       N  0.13406042  0.48836072  0.82018334    -0.82300
H1260       H  0.16249737  0.49445647  0.87626403     0.13500
C1261       C  0.15944197  0.52443333  0.93127677     0.02800
N1262       N  0.11489038  0.55897700  0.92857686    -0.80800
H1263       H  0.08593570  0.55303213  0.87314096     0.18300
C1264       C  0.17341332  0.54728831  0.93809764    -0.25700
C1265       C  0.19341206  0.54756725  0.96212539     0.36300
C1266       C  0.19996462  0.52420181  0.97917031    -0.19700
C1267       C  0.18465601  0.50187768  0.97432400    -0.25000
C1268       C  0.16433526  0.50178096  0.95048527     0.27700
H1269       H  0.16943905  0.56482351  0.92368760     0.13500
N1270       N  0.20725552  0.57158901  0.96762452    -0.82200
H1271       H  0.18976783  0.48398940  0.98731230     0.18300
N1272       N  0.14930597  0.47856002  0.94468791    -0.80800
H1273       H  0.19369546  0.58534128  0.97593407     0.33900
H1274       H  0.22074966  0.56980885  0.98726139     0.38400
H1275       H  0.15552271  0.46354566  0.96065894     0.33900
H1276       H  0.13001373  0.48262484  0.95130987     0.30600
H1277       H  0.09837504  0.57028480  0.92371541     0.33900
H1278       H  0.11079844  0.54796053  0.95021791     0.30600
H1279       H  0.13876859  0.49955676  0.79890624     0.38500
H1280       H  0.15049676  0.47706577  0.82552939     0.34000
C1281       C  0.21224966  0.50540961  0.55075862    -0.19800
C1282       C  0.19542344  0.52507570  0.56230788     0.36400
C1283       C  0.17676228  0.51942305  0.58724200    -0.25800
C1284       C  0.17462868  0.49433118  0.60115732     0.02900
C1285       C  0.19209031  0.47475149  0.59049404     0.27700
C1286       C  0.21073577  0.48049570  0.56533629    -0.24900
N1287       N  0.19751888  0.55093663  0.54899524    -0.82300
H1288       H  0.16352623  0.53460730  0.59533607     0.13500
C1289       C  0.15297257  0.48864715  0.62520404     0.02800
N1290       N  0.19073599  0.44916801  0.60520662    -0.80800
H1291       H  0.22388584  0.46545534  0.55662770     0.18300
C1292       C  0.13369365  0.47064700  0.61591500    -0.25700
C1293       C  0.11136863  0.46682975  0.63592041     0.36300
C1294       C  0.10796589  0.48130582  0.66602787    -0.19700
C1295       C  0.12799069  0.49844124  0.67610871    -0.25000
C1296       C  0.15040837  0.50224506  0.65602097     0.27700
H1297       H  0.13560374  0.45999601  0.59238772     0.13500
N1298       N  0.09221626  0.44820174  0.62539909    -0.82200
H1299       H  0.12584706  0.50951338  0.69925167     0.18300
N1300       N  0.17044571  0.52008772  0.66653252    -0.80800
H1301       H  0.10128496  0.43004453  0.62345845     0.33900
H1302       H  0.08562977  0.45352799  0.60131914     0.38400
H1303       H  0.16562677  0.52860859  0.68970918     0.33900
H1304       H  0.18741798  0.50928144  0.67060715     0.30600
H1305       H  0.20487308  0.43703371  0.59458570     0.33900
H1306       H  0.19533297  0.45093731  0.63088735     0.30600
H1307       H  0.17951293  0.55601814  0.53852232     0.38500
H1308       H  0.20131495  0.56357718  0.56912423     0.34000
C1309       C  0.27233227  0.49790830  0.55450802    -0.19800
C1310       C  0.29092909  0.47813046  0.55008029     0.36400
C1311       C  0.31169535  0.47599357  0.57276402    -0.25800
C1312       C  0.31417914  0.49349722  0.59969920     0.02900
C1313       C  0.29386376  0.51136535  0.60636979     0.27700
C1314       C  0.27298048  0.51332981  0.58371149    -0.24900
N1315       N  0.28957623  0.46125923  0.52129096    -0.82300
H1316       H  0.32699487  0.46199571  0.56773164     0.13500
C1317       C  0.33978840  0.49546418  0.61649131     0.02800
N1318       N  0.29436885  0.52814204  0.63530659    -0.80800
H1319       H  0.25771571  0.52660088  0.09033257     0.18300
C1320       C  0.35477692  0.51787931  0.61074296    -0.25700
C1321       C  0.38015544  0.51990229  0.62328760     0.36300
C1322       C  0.39106460  0.49893557  0.64145593    -0.19700
C1323       C  0.37634323  0.47613870  0.64636768    -0.25000
C1324       C  0.35066476  0.47426911  0.63418731     0.27700
H1325       H  0.34688864  0.53375454  0.59581240     0.13500
N1326       N  0.39498446  0.54306849  0.61685935    -0.82200
H1327       H  0.38462354  0.46005627  0.66051619     0.18300
N1328       N  0.33557937  0.45102485  0.63960151    -0.80800
H1329       H  0.39618956  0.54571831  0.59066064     0.33900
H1330       H  0.38483022  0.55887085  0.62700477     0.38400
H1331       H  0.34644955  0.43720973  0.65296780     0.33900
H1332       H  0.31975797  0.45596888  0.65495845     0.30600
H1333       H  0.30888849  0.53744531  0.13900953     0.33900
H1334       H  0.29616336  0.51654153  0.65695351     0.30600
H1335       H  0.30677090  0.46346969  0.50737799     0.38500
H1336       H  0.28874513  0.44205921  0.53008243     0.34000
C1337       C  0.49758870  0.10442795  0.63554787    -0.19800
C1338       C  0.51898585  0.11682103  0.61964339     0.36400
C1339       C  0.51615059  0.14225878  0.60715818    -0.25800
C1340       C  0.49239579  0.15553167  0.60968811     0.02900
C1341       C  0.47101124  0.14333856  0.62548962     0.27700
C1342       C  0.47379831  0.11787881  0.63825774    -0.24900
N1343       N  0.54333370  0.10337523  0.61544857    -0.82300
H1344       H  0.53231837  0.15149201  0.59415483     0.13500
C1345       C  0.48973740  0.18056963  0.59133016     0.02800
N1346       N  0.44661714  0.15685877  0.62837834    -0.80800
H1347       H  0.45743026  0.10865689  0.65081609     0.18300
C1348       C  0.47409281  0.18104291  0.56230872    -0.25700
C1349       C  0.47692662  0.20088022  0.53818436     0.36300
C1350       C  0.49553119  0.22071657  0.54346417    -0.19700
C1351       C  0.50897584  0.22195968  0.57432150    -0.25000
C1352       C  0.50627445  0.20187732  0.59841899     0.27700
H1353       H  0.46134392  0.16469691  0.55701092     0.13500
N1354       N  0.46249691  0.19994157  0.50700176    -0.82200
H1355       H  0.52325919  0.23722619  0.57827404     0.18300
N1356       N  0.52140589  0.20208388  0.62902606    -0.80800
H1357       H  0.44999518  0.18384314  0.50667490     0.33900
H1358       H  0.45361632  0.21856032  0.00614936     0.38400
H1359       H  0.53280876  0.21895159  0.63029535     0.33900
H1360       H  0.50835889  0.20290773  0.64931536     0.30600
H1361       H  0.43281753  0.14519734  0.64066258     0.33900
H1362       H  0.44970413  0.17308957  0.64382943     0.30600
H1363       H  0.54001634  0.08767804  0.59916967     0.38500
H1364       H  0.55706578  0.11534605  0.60353726     0.34000
C1365       C  0.52430710  0.29124201  0.96250975    -0.19800
C1366       C  0.54713419  0.29694297  0.94415070     0.36400
C1367       C  0.54724820  0.31743192  0.92075529    -0.25800
C1368       C  0.52483347  0.33237376  0.91524128     0.02900
C1369       C  0.50239721  0.32781173  0.93510883     0.27700
C1370       C  0.50236738  0.30722936  0.95869158    -0.24900
N1371       N  0.57005712  0.28142940  0.94860107    -0.82300
H1372       H  0.56456620  0.32091230  0.90570701     0.13500
C1373       C  0.52458856  0.35121676  0.88677096     0.02800
N1374       N  0.47955299  0.34357293  0.93042837    -0.80800
H1375       H  0.48471843  0.30269045  0.97255756     0.18300
C1376       C  0.50705951  0.34729737  0.86007487    -0.25700
C1377       C  0.50652870  0.36408862  0.83196655     0.36300
C1378       C  0.52371396  0.38577786  0.83084078    -0.19700
C1379       C  0.54183334  0.38906160  0.85731300    -0.25000
C1380       C  0.54243665  0.37202797  0.88518655     0.27700
H1381       H  0.49387323  0.33079686  0.86105880     0.13500
N1382       N  0.48830952  0.35926054  0.80501529    -0.82200
H1383       H  0.55523969  0.40537448  0.85677142     0.18300
N1384       N  0.56080807  0.37600178  0.91218062    -0.80800
H1385       H  0.49909295  0.35398195  0.78365656     0.33900
H1386       H  0.47636533  0.34332424  0.81070714     0.38400
H1387       H  0.57268495  0.39211153  0.90712962     0.33900
H1388       H  0.55022057  0.38041851  0.93402697     0.30600
H1389       H  0.46468642  0.33756317  0.94678301     0.33900
H1390       H  0.48439143  0.36262815  0.93731610     0.30600
H1391       H  0.58523112  0.29373953  0.95612386     0.38500
H1392       H  0.57501156  0.27341586  0.92516103     0.34000
C1393       C  0.50154454  0.28121127  0.53578898    -0.19800
C1394       C  0.52094644  0.29851873  0.54706971     0.36400
C1395       C  0.51488213  0.31767642  0.57103746    -0.25800
C1396       C  0.48964086  0.31987326  0.58441525     0.02900
C1397       C  0.47010322  0.30235465  0.57339891     0.27700
C1398       C  0.47630068  0.28311877  0.54921145    -0.24900
N1399       N  0.54703640  0.29631503  0.53461963    -0.82300
H1400       H  0.52999759  0.33106227  0.57911501     0.13500
C1401       C  0.48417560  0.34107048  0.60922972     0.02800
N1402       N  0.44416688  0.30410839  0.58689229    -0.80800
H1403       H  0.46143222  0.26970240  0.54052298     0.18300
C1404       C  0.46525907  0.35990954  0.60170476    -0.25700
C1405       C  0.46169434  0.38177074  0.62259246     0.36300
C1406       C  0.47745918  0.38521053  0.65164135    -0.19700
C1407       C  0.49551885  0.36562584  0.65999593    -0.25000
C1408       C  0.49898262  0.34363210  0.63919040     0.27700
H1409       H  0.45366173  0.35805655  0.57890246     0.13500
N1410       N  0.44198113  0.40038998  0.61410900    -0.82200
H1411       H  0.50755302  0.36779651  0.68235256     0.18300
N1412       N  0.51773440  0.32400788  0.64810643    -0.80800
H1413       H  0.42404770  0.39070168  0.61336178     0.33900
H1414       H  0.44589804  0.40755347  0.58984956     0.38400
H1415       H  0.52712580  0.32879139  0.67075396     0.33900
H1416       H  0.50753041  0.30669322  0.65255813     0.30600
H1417       H  0.43213304  0.28992031  0.57608945     0.33900
H1418       H  0.44521529  0.29991851  0.61276159     0.30600
H1419       H  0.55219431  0.31408028  0.52348628     0.38500
H1420       H  0.55938601  0.29315938  0.55527018     0.34000
C1421       C  0.49976039  0.77769466  0.94752958    -0.19800
C1422       C  0.52023335  0.79617099  0.94702500     0.36400
C1423       C  0.52010706  0.81609293  0.92294182    -0.25800
C1424       C  0.50006152  0.81798884  0.89894249     0.02900
C1425       C  0.48162506  0.79743148  0.89646197     0.27700
C1426       C  0.48151233  0.77767482  0.92111903    -0.24900
N1427       N  0.54110396  0.79555482  0.97114773    -0.82300
H1428       H  0.53487370  0.83117330  0.92442897     0.13500
C1429       C  0.49736745  0.84294634  0.88002573     0.02800
N1430       N  0.46266654  0.79617301  0.86971824    -0.80800
H1431       H  0.46602724  0.76329535  0.92090307     0.18300
C1432       C  0.51848637  0.85248567  0.86116284    -0.25700
C1433       C  0.51751283  0.87707094  0.84539400     0.36300
C1434       C  0.49463547  0.89232811  0.84811495    -0.19700
C1435       C  0.47347961  0.88264063  0.86687332    -0.25000
C1436       C  0.47480150  0.85843737  0.88344284     0.27700
H1437       H  0.53594371  0.84075447  0.85906342     0.13500
N1438       N  0.53938550  0.88611699  0.82586995    -0.82200
H1439       H  0.45599947  0.89430566  0.86926392     0.18300
N1440       N  0.45350696  0.84974574  0.90427023    -0.80800
H1441       H  0.55359110  0.87160969  0.82408703     0.33900
H1442       H  0.54804036  0.90138818  0.83927357     0.38400
H1443       H  0.46021442  0.84881820  0.92923067     0.33900
H1444       H  0.43832506  0.86330348  0.90394405     0.30600
H1445       H  0.44423997  0.79877420  0.88044084     0.33900
H1446       H  0.46547862  0.81096914  0.85192372     0.30600
H1447       H  0.53373586  0.79808960  0.99551130     0.38500
H1448       H  0.55008762  0.77734519  0.96978448     0.34000
C1449       C  0.47535121  0.60996390  0.65695512    -0.19800
C1450       C  0.47135859  0.60257017  0.62270201     0.36400
C1451       C  0.47332472  0.62144406  0.59702817    -0.25800
C1452       C  0.47888720  0.64738474  0.60482336     0.02900
C1453       C  0.48323372  0.65479542  0.63863757     0.27700
C1454       C  0.48144584  0.63602248  0.66438274    -0.24900
N1455       N  0.46603797  0.57592195  0.61385517    -0.82300
H1456       H  0.47002228  0.61604658  0.57086396     0.13500
C1457       C  0.47830163  0.66720888  0.57782317     0.02800
N1458       N  0.48930204  0.68144456  0.64658872    -0.80800
H1459       H  0.48483676  0.64178924  0.69038311     0.18300
C1460       C  0.45657621  0.68353160  0.57584426    -0.25700
C1461       C  0.45635016  0.70486977  0.55400060     0.36300
C1462       C  0.47830473  0.71000107  0.53337587    -0.19700
C1463       C  0.49938279  0.69261051  0.53374699    -0.25000
C1464       C  0.49963204  0.67118042  0.55597167     0.27700
H1465       H  0.44002404  0.68016211  0.59233687     0.13500
N1466       N  0.43353024  0.72091458  0.55329998    -0.82200
H1467       H  0.51631904  0.69662147  0.51826551     0.18300
N1468       N  0.52169901  0.65400670  0.55727118    -0.80800
H1469       H  0.42822305  0.72001014  0.02449998     0.33900
H1470       H  0.43820708  0.73776685  0.05834835     0.38400
H1471       H  0.53567321  0.65958855  0.53940299     0.33900
H1472       H  0.53038953  0.65609742  0.58105266     0.30600
H1473       H  0.49176842  0.68377180  0.67267790     0.33900
H1474       H  0.50724263  0.68585778  0.63539860     0.30600
H1475       H  0.44703691  0.57172170  0.62170298     0.38500
H1476       H  0.46610727  0.57354596  0.58757455     0.34000
C1477       C  0.50866508  0.61060783  0.84339618    -0.19800
C1478       C  0.50069370  0.60719711  0.87744876     0.36400
C1479       C  0.49645409  0.62912954  0.89805059    -0.25800
C1480       C  0.49981591  0.65442582  0.88544378     0.02900
C1481       C  0.50704297  0.65798578  0.85131601     0.27700
C1482       C  0.51124588  0.63604543  0.83053564    -0.24900
N1483       N  0.49652724  0.58147355  0.89088705    -0.82300
H1484       H  0.49070583  0.62652118  0.92423433     0.13500
C1485       C  0.49684801  0.67687446  0.90888519     0.02800
N1486       N  0.51028284  0.68387141  0.83806386    -0.80800
H1487       H  0.51696401  0.63879783  0.80437706     0.18300
C1488       C  0.51926211  0.68895031  0.92181212    -0.25700
C1489       C  0.51758953  0.70878808  0.94613432     0.36300
C1490       C  0.49278985  0.71734177  0.95710378    -0.19700
C1491       C  0.47034397  0.70538887  0.94400277    -0.25000
C1492       C  0.47210890  0.68522426  0.91994988     0.27700
H1493       H  0.53829283  0.68229080  0.91371966     0.13500
N1494       N  0.53978773  0.72221433  0.45911176    -0.82200
H1495       H  0.45143253  0.71182899  0.95279226     0.18300
N1496       N  0.44896707  0.67304091  0.90690613    -0.80800
H1497       H  0.55063110  0.70728913  0.47033315     0.33900
H1498       H  0.53579000  0.73535272  0.47849917     0.38400
H1499       H  0.43235102  0.68132555  0.91774124     0.33900
H1500       H  0.44808171  0.67706792  0.88097954     0.30600
H1501       H  0.51577718  0.68320774  0.81260232     0.33900
H1502       H  0.49210663  0.69302368  0.83888113     0.30600
H1503       H  0.48088060  0.57322342  0.87772558     0.38500
H1504       H  0.49091651  0.58235581  0.91629747     0.34000
C1505       C  0.21639659  0.02470449  0.53188356    -0.19800
C1506       C  0.19777098  0.00457740  0.53115232     0.36400
C1507       C  0.17825807  0.00372351  0.55567209    -0.25800
C1508       C  0.17706257  0.02270778  0.58091519     0.02900
C1509       C  0.19649863  0.04206938  0.58305696     0.27700
C1510       C  0.21625628  0.04282680  0.55836903    -0.24900
N1511       N  0.20133347  0.98384942  0.00673444    -0.82300
H1512       H  0.16345691  0.98865647  0.55439085     0.13500
C1513       C  0.15445629  0.02227303  0.60368046     0.02800
N1514       N  0.19578533  0.06099870  0.60978804    -0.80800
H1515       H  0.23058842  0.05835191  0.55863591     0.18300
C1516       C  0.15530991  0.00654323  0.63258936    -0.25700
C1517       C  0.13280617  0.00223923  0.65198167     0.36300
C1518       C  0.10909278  0.01381959  0.64184630    -0.19700
C1519       C  0.10861115  0.03042771  0.61360326    -0.25000
C1520       C  0.13106901  0.03457695  0.59416043     0.27700
H1521       H  0.17342473  0.99707168  0.63943488     0.13500
N1522       N  0.13393276  0.98619244  0.68180099    -0.82200
H1523       H  0.09043427  0.03941688  0.60596238     0.18300
N1524       N  0.12999761  0.05019773  0.56393920    -0.80800
H1525       H  0.15280012  0.97905550  0.68547712     0.33900
H1526       H  0.12980627  0.99807028  0.70258172     0.38400
H1527       H  0.11114107  0.05730433  0.56006558     0.33900
H1528       H  0.14194187  0.06644577  0.56765204     0.30600
H1529       H  0.21164814  0.07372205  0.60783403     0.33900
H1530       H  0.17903599  0.07227812  0.60653074     0.30600
H1531       H  0.20352935  0.96619220  0.01964484     0.38500
H1532       H  0.18382611  0.98308017  0.99322368     0.34000
C1533       C  0.29223106  0.02628163  0.95261593    -0.19800
C1534       C  0.30253299  0.04286300  0.92755213     0.34800
C1535       C  0.32281100  0.03388318  0.90692233    -0.25800
C1536       C  0.33244964  0.00846365  0.91043633     0.02900
C1537       C  0.32348671  0.99258207  0.93717567     0.27700
C1538       C  0.30360441  0.00185383  0.95840586    -0.24900
N1539       N  0.29135533  0.06817576  0.92203176    -0.82300
H1540       H  0.33015953  0.04618230  0.88673426     0.13500
C1541       C  0.34990751  0.99816182  0.88381379     0.02800
N1542       N  0.33342674  0.96661503  0.94132358    -0.80800
H1543       H  0.29538995  0.98907978  0.97749314     0.18300
C1544       C  0.37517569  0.99011153  0.89206844    -0.25700
C1545       C  0.39275142  0.98232883  0.86671359     0.36300
C1546       C  0.38486206  0.98312477  0.83230034    -0.19700
C1547       C  0.35907817  0.98994833  0.82446309    -0.25000
C1548       C  0.34145514  0.99716603  0.84987842     0.27700
H1549       H  0.38141279  0.99065117  0.91826972     0.13500
N1550       N  0.41892517  0.97514647  0.87573564    -0.82200
H1551       H  0.35283106  0.99028806  0.79826189     0.18300
N1552       N  0.31508038  0.00399957  0.84137490    -0.80800
H1553       H  0.42193434  0.97732217  0.90175799     0.33900
H1554       H  0.42097169  0.95526772  0.87073296     0.38400
H1555       H  0.31198757  0.00241041  0.81530422     0.33900
H1556       H  0.30279413  0.99036955  0.85294223     0.30600
H1557       H  0.32472287  0.95751246  0.96215399     0.33900
H1558       H  0.32797815  0.95588133  0.91998734     0.30600
H1559       H  0.29466682  0.07922282  0.94380960     0.38500
H1560       H  0.30086631  0.07777309  0.90219643     0.34000
C1561       C  0.27726917  0.02715335  0.52804186    -0.19800
C1562       C  0.29565139  0.04714933  0.53315963     0.36400
C1563       C  0.31517871  0.04410010  0.55771646    -0.25800
C1564       C  0.31683422  0.02140128  0.57745368     0.02900
C1565       C  0.29763419  0.00183120  0.57352468     0.27700
C1566       C  0.27787965  0.00500440  0.54891229    -0.24900
N1567       N  0.29487912  0.07036682  0.01429819    -0.82300
H1568       H  0.32952200  0.05938414  0.56117875     0.13500
C1569       C  0.33962650  0.01838790  0.60069317     0.02800
N1570       N  0.29871569  0.97857001  0.59374191    -0.80800
H1571       H  0.26356226  0.98977956  0.54499643     0.18300
C1572       C  0.33596167  0.01507713  0.63567471    -0.25700
C1573       C  0.35734127  0.01455669  0.65830094     0.36300
C1574       C  0.38299315  0.01825012  0.64569192    -0.19700
C1575       C  0.38641821  0.02066106  0.61044625    -0.25000
C1576       C  0.36521651  0.02037435  0.58796078     0.27700
H1577       H  0.31630305  0.01333562  0.64541637     0.13500
N1578       N  0.35287827  0.01090242  0.69390684    -0.82200
H1579       H  0.40587183  0.02266773  0.60013167     0.18300
N1580       N  0.36955232  0.02220199  0.55205996    -0.80800
H1581       H  0.33290742  0.01000871  0.69903004     0.33900
H1582       H  0.36037385  0.99265203  0.70045311     0.38400
H1583       H  0.38945460  0.02364549  0.54671390     0.33900
H1584       H  0.36307496  0.00480114  0.54117997     0.30600
H1585       H  0.28316832  0.96619913  0.58780363     0.33900
H1586       H  0.31576657  0.96864174  0.58727718     0.30600
H1587       H  0.27727949  0.07963344  0.01989497     0.38500
H1588       H  0.30977917  0.08318062  0.02132908     0.34000
C1589       C  0.89370811  0.99601867  0.84552804    -0.19800
C1590       C  0.89014278  0.98334868  0.87688276     0.36400
C1591       C  0.86475867  0.98025973  0.88971056    -0.25800
C1592       C  0.84290496  0.98901034  0.87149663     0.02900
C1593       C  0.84645671  0.00051795  0.83941953     0.27700
C1594       C  0.87184445  0.00419834  0.82696049    -0.24900
N1595       N  0.91226393  0.97500866  0.89641504    -0.82300
H1596       H  0.86204019  0.97178198  0.91460025     0.13500
C1597       C  0.81701633  0.98876980  0.88835151     0.02800
N1598       N  0.82427457  0.00865241  0.81987269    -0.80800
H1599       H  0.87463090  0.01345317  0.80254592     0.18300
C1600       C  0.80431154  0.01256995  0.89381698    -0.25700
C1601       C  0.78348553  0.01450713  0.91654919     0.36300
C1602       C  0.77509845  0.99200406  0.93420693    -0.19700
C1603       C  0.78610173  0.96779065  0.92623263    -0.25000
C1604       C  0.80690303  0.96590645  0.90322443     0.27700
H1605       H  0.81194441  0.03022632  0.88243898     0.13500
N1606       N  0.77300480  0.03994119  0.92316055    -0.82200
H1607       H  0.77952893  0.94965737  0.43887112     0.18300
N1608       N  0.81873550  0.94114049  0.89626962    -0.80800
H1609       H  0.76465697  0.04669680  0.90069655     0.33900
H1610       H  0.75796768  0.03916492  0.94089904     0.38400
H1611       H  0.80916795  0.92628824  0.90949951     0.33900
H1612       H  0.81606536  0.93728534  0.87052173     0.30600
H1613       H  0.83022755  0.01679778  0.79685944     0.33900
H1614       H  0.81348069  0.99197532  0.81396512     0.30600
H1615       H  0.92091731  0.95949830  0.88356501     0.38500
H1616       H  0.90627195  0.96757545  0.91981543     0.34000
C1617       C  0.70909578  0.00658772  0.52558856    -0.19800
C1618       C  0.68766734  0.98940657  0.52605432     0.36400
C1619       C  0.66755500  0.99316797  0.54972982    -0.25800
C1620       C  0.66883569  0.01345994  0.57346662     0.02900
C1621       C  0.68979025  0.03117711  0.57234365     0.27700
C1622       C  0.70953533  0.02769210  0.54821392    -0.24900
N1623       N  0.68690385  0.96735607  0.50397427    -0.82300
H1624       H  0.65140558  0.97955186  0.55053504     0.13500
C1625       C  0.64870598  0.01532386  0.60024534     0.02800
N1626       N  0.69096370  0.05257966  0.59573324    -0.80800
H1627       H  0.72595768  0.04099658  0.54786556     0.18300
C1628       C  0.65493793  0.00760601  0.63332268    -0.25700
C1629       C  0.63631197  0.00858134  0.65941349     0.36300
C1630       C  0.61070003  0.01719338  0.65208688    -0.19700
C1631       C  0.60478828  0.02544159  0.61894471    -0.25000
C1632       C  0.62352526  0.02453088  0.59298284     0.27700
H1633       H  0.67444126  0.00066161  0.63870912     0.13500
N1634       N  0.64336947  0.00084586  0.69319501    -0.82200
H1635       H  0.58525184  0.03197085  0.61298641     0.18300
N1636       N  0.61703255  0.03255359  0.55914578    -0.80800
H1637       H  0.66278260  0.99472532  0.69410738     0.33900
H1638       H  0.64210348  0.01733654  0.70859254     0.38400
H1639       H  0.59761311  0.03860117  0.55786544     0.33900
H1640       H  0.62846818  0.04882846  0.55331619     0.30600
H1641       H  0.70718533  0.06431655  0.59070807     0.33900
H1642       H  0.69379952  0.04488528  0.61995808     0.30600
H1643       H  0.66987870  0.96855070  0.48949519     0.38500
H1644       H  0.68576225  0.95053104  0.51883639     0.34000
C1645       C  0.71540029  0.99505074  0.94698845    -0.19800
C1646       C  0.69621771  0.01445629  0.94278389     0.36400
C1647       C  0.67583820  0.01045864  0.91947954    -0.25800
C1648       C  0.67453748  0.98768085  0.89997180     0.02900
C1649       C  0.69401437  0.96858983  0.90351973     0.27700
C1650       C  0.71431852  0.97253085  0.92688737    -0.24900
N1651       N  0.69743757  0.03804756  0.96220997    -0.82300
H1652       H  0.66080850  0.02508760  0.91655017     0.13500
C1653       C  0.65194163  0.98356075  0.87712917     0.02800
N1654       N  0.69274917  0.94507137  0.88390224    -0.80800
H1655       H  0.72891548  0.95757073  0.93037034     0.18300
C1656       C  0.65510294  0.98572709  0.84200110    -0.25700
C1657       C  0.63371340  0.98310067  0.81980154     0.36300
C1658       C  0.60861399  0.97754214  0.83316085    -0.19700
C1659       C  0.60592124  0.97473688  0.86850856    -0.25000
C1660       C  0.62722294  0.97775300  0.89050046     0.27700
H1661       H  0.67426924  0.99009639  0.83195819     0.13500
N1662       N  0.63758794  0.98605724  0.78395737    -0.82200
H1663       H  0.58696692  0.97056103  0.87929372     0.18300
N1664       N  0.62386950  0.97509971  0.92648182    -0.80800
H1665       H  0.65741658  0.98797336  0.77837668     0.33900
H1666       H  0.62899576  0.00366315  0.77675161     0.38400
H1667       H  0.60442270  0.97102563  0.93236668     0.33900
H1668       H  0.63472785  0.95896655  0.93433956     0.30600
H1669       H  0.70862345  0.93304628  0.88941178     0.33900
H1670       H  0.67604316  0.93489543  0.89138994     0.30600
H1671       H  0.71439228  0.04715502  0.45444636     0.38500
H1672       H  0.68170374  0.05012391  0.95644125     0.34000
C1673       C  0.97680206  0.21156458  0.96579569    -0.19800
C1674       C  0.99839486  0.19514393  0.96120133     0.36400
C1675       C  0.99679170  0.17452852  0.93800487    -0.25800
C1676       C  0.97405527  0.17044095  0.91888476     0.02900
C1677       C  0.95194527  0.18604039  0.92484671     0.27700
C1678       C  0.95353068  0.20635040  0.94845363    -0.24900
N1679       N  0.02247589  0.20044173  0.97817949    -0.82300
H1680       H  0.01377461  0.16247578  0.93363761     0.13500
C1681       C  0.97429843  0.15134125  0.89079441     0.02800
N1682       N  0.92846823  0.18209740  0.90562678    -0.80800
H1683       H  0.93705218  0.21926938  0.95180351     0.18300
C1684       C  0.95641507  0.13069853  0.89076530    -0.25700
C1685       C  0.95569404  0.11260825  0.86409265     0.36300
C1686       C  0.97368044  0.11501371  0.83699732    -0.19700
C1687       C  0.99120678  0.13615345  0.83695677    -0.25000
C1688       C  0.99160411  0.15435336  0.86339038     0.27700
H1689       H  0.94294391  0.12872929  0.91173287     0.13500
N1690       N  0.93688782  0.09182061  0.86473888    -0.82200
H1691       H  0.00503022  0.13838504  0.81644272     0.18300
N1692       N  0.00950020  0.17594238  0.86251287    -0.80800
H1693       H  0.92577179  0.09248197  0.88689492     0.33900
H1694       H  0.92394489  0.09493357  0.84469410     0.38400
H1695       H  0.02108942  0.17522643  0.84077367     0.33900
H1696       H  0.99850609  0.19301986  0.86080088     0.30600
H1697       H  0.91402000  0.19517996  0.91321213     0.33900
H1698       H  0.93264549  0.18638248  0.88032017     0.30600
H1699       H  0.02753317  0.18393343  0.99223603     0.38500
H1700       H  0.03686841  0.20343267  0.95984882     0.34000
C1701       C  0.99172911  0.22386871  0.54034960    -0.19800
C1702       C  0.97250222  0.20562835  0.55057416     0.36400
C1703       C  0.97873743  0.18669240  0.57492770    -0.25800
C1704       C  0.00354873  0.18569845  0.58981252     0.02900
C1705       C  0.02243673  0.20435570  0.58052679     0.27700
C1706       C  0.01633487  0.22322650  0.55588113    -0.24900
N1707       N  0.94629622  0.20624064  0.53779926    -0.82300
H1708       H  0.96408062  0.17253671  0.58224568     0.13500
C1709       C  0.00976175  0.16436932  0.61405671     0.02800
N1710       N  0.04776198  0.20392049  0.59605901    -0.80800
H1711       H  0.03096733  0.23725542  0.54816860     0.18300
C1712       C  0.02818290  0.14556472  0.60489062    -0.25700
C1713       C  0.03348009  0.12406216  0.62591922     0.36300
C1714       C  0.01964112  0.12101140  0.65679684    -0.19700
C1715       C  0.00204845  0.14061849  0.66655549    -0.25000
C1716       C  0.99701517  0.16224032  0.64553532     0.27700
H1717       H  0.03816693  0.14747987  0.58084290     0.13500
N1718       N  0.05269990  0.10528159  0.61575325    -0.82200
H1719       H  0.99153634  0.13871485  0.69020242     0.18300
N1720       N  0.97879029  0.18191808  0.65580921    -0.80800
H1721       H  0.06060984  0.11015050  0.59218175     0.33900
H1722       H  0.06800988  0.10621371  0.63318371     0.38400
H1723       H  0.97100809  0.17748345  0.67959029     0.33900
H1724       H  0.98914186  0.19934832  0.65855025     0.30600
H1725       H  0.05944048  0.21888430  0.58638400     0.33900
H1726       H  0.04526556  0.20778082  0.62183255     0.30600
H1727       H  0.94296514  0.22256807  0.52268545     0.38500
H1728       H  0.94359377  0.18970987  0.52277276     0.34000
C1729       C  0.99581157  0.28443997  0.54614493    -0.19800
C1730       C  0.01573757  0.30334131  0.54469620     0.36400
C1731       C  0.01620019  0.32351721  0.56856015    -0.25800
C1732       C  0.99717709  0.32508356  0.59392505     0.02900
C1733       C  0.97863013  0.30484248  0.59719516     0.27700
C1734       C  0.97815650  0.28459157  0.57318792    -0.24900
N1735       N  0.03451805  0.30272150  0.51771609    -0.82300
H1736       H  0.03046637  0.33898451  0.56605674     0.13500
C1737       C  0.99514563  0.34951825  0.61389134     0.02800
N1738       N  0.95969577  0.30562452  0.62396067    -0.80800
H1739       H  0.96282921  0.27005840  0.57410908     0.18300
C1740       C  0.97211488  0.36412388  0.61176264    -0.25700
C1741       C  0.96994148  0.38853983  0.62750196     0.36300
C1742       C  0.99120230  0.39848414  0.64625359    -0.19700
C1743       C  0.01437088  0.38396175  0.64808084    -0.25000
C1744       C  0.01652871  0.35955237  0.63217799     0.27700
H1745       H  0.95599798  0.35675746  0.59682764     0.13500
N1746       N  0.94646266  0.40352920  0.62375742    -0.82200
H1747       H  0.03070091  0.39145781  0.66250199     0.18300
N1748       N  0.04028465  0.34486549  0.63456340    -0.80800
H1749       H  0.93271176  0.39339366  0.60932925     0.33900
H1750       H  0.95117893  0.42034673  0.61007854     0.38400
H1751       H  0.05418338  0.35498809  0.64876982     0.33900
H1752       H  0.03613512  0.32771068  0.64781769     0.30600
H1753       H  0.94729703  0.28947378  0.62262697     0.33900
H1754       H  0.96977921  0.30412347  0.64687788     0.30600
H1755       H  0.04532418  0.28560101  0.52043948     0.38500
H1756       H  0.04768678  0.31818848  0.51993735     0.34000
C1757       C  0.02394108  0.80008806  0.52931636    -0.19800
C1758       C  0.00425202  0.81908242  0.53040711     0.36400
C1759       C  0.00731520  0.84083873  0.55154485    -0.25800
C1760       C  0.02971077  0.84362401  0.57167269     0.02900
C1761       C  0.05038040  0.82564960  0.56828389     0.27700
C1762       C  0.04711384  0.80400365  0.54737920    -0.24900
N1763       N  0.98041471  0.81534846  0.51218637    -0.82300
H1764       H  0.99143950  0.85459821  0.55402826     0.13500
C1765       C  0.02952924  0.86266986  0.59961585     0.02800
N1766       N  0.07459301  0.82836310  0.58629494    -0.80800
H1767       H  0.06238975  0.78946693  0.54634038     0.18300
C1768       C  0.02796588  0.85326711  0.63291672    -0.25700
C1769       C  0.02835410  0.87034093  0.66049742     0.36300
C1770       C  0.03041838  0.89733858  0.65477991    -0.19700
C1771       C  0.03208825  0.90672409  0.62134252    -0.25000
C1772       C  0.03150299  0.88959961  0.59362754     0.27700
H1773       H  0.02652092  0.83248700  0.63747989     0.13500
N1774       N  0.02710570  0.86015614  0.69423940    -0.82200
H1775       H  0.03324951  0.92751582  0.61680030     0.18300
N1776       N  0.03281087  0.89935883  0.55954940    -0.80800
H1777       H  0.04275121  0.84738776  0.69759024     0.33900
H1778       H  0.00985995  0.84943065  0.69658679     0.38400
H1779       H  0.03400373  0.91969157  0.55951969     0.33900
H1780       H  0.05011480  0.89253704  0.54881541     0.30600
H1781       H  0.07551385  0.81342735  0.60427624     0.33900
H1782       H  0.07573120  0.84601516  0.59927215     0.30600
H1783       H  0.97786103  0.83129598  0.49603555     0.38500
H1784       H  0.96507294  0.81521261  0.52958789     0.34000
C1785       C  0.98921492  0.89000693  0.83731881    -0.19800
C1786       C  0.99991857  0.86644491  0.82468075     0.36400
C1787       C  0.00343225  0.84512800  0.84675627    -0.25800
C1788       C  0.99682461  0.84685451  0.88104583     0.02900
C1789       C  0.98591015  0.86997021  0.89367603     0.27700
C1790       C  0.98217187  0.89120145  0.87178591    -0.24900
N1791       N  0.00727860  0.86406829  0.78971534    -0.82300
H1792       H  0.01178788  0.82717643  0.83735188     0.13500
C1793       C  0.00182953  0.82456772  0.90395226     0.02800
N1794       N  0.97909484  0.87191154  0.92889331    -0.80800
H1795       H  0.97400608  0.90895026  0.88203740     0.18300
C1796       C  0.02512913  0.82380329  0.92241618    -0.25700
C1797       C  0.02938037  0.80440098  0.94689138     0.36300
C1798       C  0.00962038  0.78603070  0.95401614    -0.19700
C1799       C  0.98692339  0.78602133  0.93410707    -0.25000
C1800       C  0.98298423  0.80492527  0.90902489     0.27700
H1801       H  0.03994341  0.83850704  0.91807438     0.13500
N1802       N  0.05387966  0.80321964  0.96415081    -0.82200
H1803       H  0.97173475  0.77185022  0.93896273     0.18300
N1804       N  0.95948564  0.80412225  0.88948608    -0.80800
H1805       H  0.06849577  0.80075100  0.94601804     0.33900
H1806       H  0.05704058  0.82115620  0.97597389     0.38400
H1807       H  0.96457694  0.80265234  0.86393410     0.33900
H1808       H  0.94949129  0.82162894  0.89295061     0.30600
H1809       H  0.97169091  0.89039347  0.93434839     0.33900
H1810       H  0.96401205  0.85867386  0.93355317     0.30600
H1811       H  0.02387062  0.87556596  0.78601789     0.38500
H1812       H  0.01289547  0.84496366  0.78424891     0.34000
C1813       C  0.00019542  0.72571370  0.95413113    -0.19800
C1814       C  0.97778378  0.70971675  0.95398050     0.36400
C1815       C  0.97688536  0.68794793  0.93292693    -0.25800
C1816       C  0.99795552  0.68171965  0.91188478     0.02900
C1817       C  0.01914008  0.69940707  0.90917727     0.27700
C1818       C  0.02004627  0.72115843  0.93058015    -0.24900
N1819       N  0.95591674  0.71482608  0.97551565    -0.82300
H1820       H  0.96025024  0.67495533  0.93448675     0.13500
C1821       C  0.99811210  0.65566255  0.89577420     0.02800
N1822       N  0.04003449  0.69584059  0.88541402    -0.80800
H1823       H  0.03712656  0.73361256  0.93029492     0.18300
C1824       C  0.97781256  0.64863533  0.87381593    -0.25700
C1825       C  0.97673810  0.62364101  0.85935991     0.36300
C1826       C  0.99643635  0.60539335  0.86713789    -0.19700
C1827       C  0.01656549  0.61239366  0.88938801    -0.25000
C1828       C  0.01737083  0.63718808  0.90406428     0.27700
H1829       H  0.96287453  0.66279866  0.86779553     0.13500
N1830       N  0.95652187  0.61723611  0.83556668    -0.82200
H1831       H  0.03178378  0.59851130  0.89540876     0.18300
N1832       N  0.03761333  0.64347112  0.92767848    -0.80800
H1833       H  0.94469389  0.63342211  0.83095239     0.33900
H1834       H  0.94454035  0.60322991  0.84686713     0.38400
H1835       H  0.03665480  0.63015765  0.94769421     0.33900
H1836       H  0.05553501  0.64097821  0.91552856     0.30600
H1837       H  0.05703129  0.69207132  0.89916018     0.33900
H1838       H  0.03670419  0.67993443  0.86957533     0.30600
H1839       H  0.96175484  0.71363324  0.00077463     0.38500
H1840       H  0.94945863  0.73377742  0.97071844     0.34000
loop_ 
_geom_bond_atom_site_label_1 
_geom_bond_atom_site_label_2 
_geom_bond_distance 
_geom_bond_site_symmetry_2 
_ccdc_geom_bond_type 
N1            C2   1.359       .  A
N1          C925   1.359       .  A
N1          C878   1.447       .  S
C2          C893   1.474       .  S
C2          C923   1.382       .  A
C3            C4   1.367       .  A
C3          C922   1.381   1_554  A
C3            H6   1.082       .  S
C4            C5   1.381       .  A
C4            H7   1.082       .  S
C5          N921   1.360   1_554  A
C5          C837   1.476       .  S
N8            C9   1.356       .  A
N8          C932   1.358   1_554  A
N8          C781   1.443       .  S
C9          C809   1.474       .  S
C9          C930   1.382   1_554  A
C10          C11   1.369       .  A
C10         C929   1.382       .  A
C10          H13   1.082       .  S
C11          C12   1.381       .  A
C11          H14   1.082       .  S
C12         N928   1.360       .  A
C12         C753   1.476       .  S
N15          C16   1.359       .  A
N15         C939   1.364   1_565  A
N15         C725   1.446       .  S
C16         C682   1.476       .  S
C16         C937   1.378       .  A
C17          C18   1.369   1_566  A
C17         C936   1.378       .  A
C17          H20   1.082   1_556  S
C18          C19   1.384       .  A
C18          H21   1.082       .  S
C19         N935   1.363   1_544  A
C19         C697   1.485       .  S
N22          C23   1.352       .  A
N22         C946   1.355   1_554  A
N22         C641   1.441       .  S
C23         C585   1.467       .  S
C23         C944   1.381   1_554  A
C24          C25   1.370       .  A
C24         C943   1.382       .  A
C24          H27   1.082       .  S
C25          C26   1.381       .  A
C25          H28   1.082       .  S
C26         N942   1.355       .  A
C26         C613   1.472       .  S
N29          C30   1.358       .  A
N29         C953   1.357       .  A
N29         C570   1.443       .  S
C30         C501   1.476       .  S
C30         C951   1.382       .  A
C31          C32   1.369       .  A
C31         C950   1.382   1_554  A
C31          H34   1.082       .  S
C32          C33   1.381       .  A
C32          H35   1.082       .  S
C33         N949   1.357   1_554  A
C33         C542   1.477       .  S
N36          C37   1.357       .  A
N36         C960   1.359   1_554  A
N36         C473   1.443       .  S
C37         C430   1.476       .  S
C37         C958   1.382   1_554  A
C38          C39   1.369       .  A
C38         C957   1.383       .  A
C38          H41   1.082       .  S
C39          C40   1.381       .  A
C39          H42   1.082       .  S
C40         N956   1.359       .  A
C40         C445   1.477       .  S
N43          C44   1.355       .  A
N43         C967   1.357   1_554  A
N43         C361   1.444       .  S
C44         C389   1.471       .  S
C44         C965   1.382   1_554  A
C45          C46   1.368       .  A
C45         C964   1.382       .  A
C45          H48   1.082       .  S
C46          C47   1.382       .  A
C46          H49   1.082       .  S
C47         N963   1.357       .  A
C47         C346   1.473       .  S
N50          C51   1.356       .  A
N50         C974   1.359       .  A
N50         C277   1.443       .  S
C51         C305   1.474       .  S
C51         C972   1.381       .  A
C52          C53   1.367       .  A
C52         C971   1.382   1_554  A
C52          H55   1.082       .  S
C53          C54   1.384       .  A
C53          H56   1.082       .  S
C54         N970   1.360   1_554  A
C54         C249   1.483       .  S
O57         Mg59   2.148       .  S
O57         Mg65   2.133       .  S
O57          C92   1.240       .  S
C58          H97   1.081       .  S
C58          O71   1.237       .  S
C58          O95   1.270       .  A
Mg59         O88   2.140       .  S
Mg59        O103   2.308       .  S
Mg59         O99   2.271       .  S
Mg59         O70   2.297       .  S
O60        Mg102   2.142       .  S
O60         Mg85   2.118       .  S
O60          C81   1.240       .  S
O61          C92   1.275       .  A
O61         Mg85   2.317       .  S
C62         C458   1.490       .  S
C62          O64   1.271       .  A
C62          O76   1.277       .  A
O63          C91   1.274       .  A
O63         Mg65   2.304       .  S
O64         Mg96   2.252       .  S
Mg65         O71   2.120       .  S
Mg65         O79   2.233       .  S
Mg65         O67   2.288       .  S
C66         C318   1.482       .  S
C66         O104   1.272       .  A
C66          O72   1.276       .  A
O67          C74   1.272       .  A
H68          C81   1.081       .  S
C69          H94   1.081       .  S
C69          O83   1.238       .  S
C69          O84   1.273       .  A
O70          C93   1.270       .  A
O71         Mg85   2.136       .  S
O72        Mg102   2.315       .  S
C73         C557   1.491       .  S
C73          O86   1.276       .  A
C73          O78   1.280       .  A
C74         C529   1.489       .  S
C74         O101   1.273       .  A
Mg75         O82   2.129       .  S
Mg75         O83   2.138       .  S
Mg75         O76   2.313       .  S
Mg75         O77   2.295       .  S
Mg75        O104   2.240       .  S
O77          C81   1.273       .  A
O78         Mg85   2.341       .  S
O79          C98   1.268       .  A
O80         C100   1.279       .  A
O80         Mg96   2.336       .  S
O82         Mg96   2.135       .  S
O82          C93   1.236       .  S
O83        Mg102   2.145       .  S
O84         Mg96   2.307       .  S
Mg85        O101   2.269       .  S
O86        Mg102   2.281       .  S
H87          C92   1.081       .  S
O88         Mg96   2.124       .  S
O88          C91   1.240       .  S
H89          C91   1.081       .  S
H90          C93   1.081       .  S
O95        Mg102   2.292       .  S
C98         C402   1.476       .  S
C98         O103   1.274       .  A
O99         C100   1.273       .  A
C100        C486   1.496       .  S
O105       Mg107   2.138       .  S
O105       Mg113   2.135       .  S
O105        C140   1.238   1_545  S
C106        H145   1.081       .  S
C106        O119   1.237       .  S
C106        O143   1.271       .  A
Mg107       O136   2.135       .  S
Mg107       O151   2.320       .  S
Mg107       O147   2.263       .  S
Mg107       O118   2.300   1_545  S
O108       Mg150   2.142       .  S
O108       Mg133   2.135       .  S
O108        C129   1.240       .  S
O109        C140   1.272       .  A
O109       Mg133   2.304       .  S
C110        C626   1.484       .  S
C110        O112   1.273       .  A
C110        O124   1.274       .  A
O111        C139   1.273       .  A
O111       Mg113   2.303       .  S
O112       Mg144   2.261   1_565  S
Mg113       O119   2.125       .  S
Mg113       O127   2.251       .  S
Mg113       O115   2.319       .  S
C114        C514   1.483       .  S
C114        O152   1.271       .  A
C114        O120   1.274       .  A
O115        C122   1.278       .  A
H116        C129   1.081       .  S
C117        H142   1.081       .  S
C117        O131   1.239   1_545  S
C117        O132   1.273       .  A
O118        C141   1.272       .  A
O119       Mg133   2.139   1_545  S
O120       Mg150   2.305       .  S
C121        C738   1.499       .  S
C121        O134   1.274       .  A
C121        O126   1.278       .  A
C122        C710   1.491       .  S
C122        O149   1.274   1_545  A
Mg123       O130   2.130       .  S
Mg123       O131   2.134       .  S
Mg123       O124   2.306       .  S
Mg123       O125   2.305       .  S
Mg123       O152   2.259       .  S
O125        C129   1.274       .  A
O126       Mg133   2.329       .  S
O127        C146   1.272       .  A
O128        C148   1.277       .  A
O128       Mg144   2.329       .  S
O130       Mg144   2.134   1_565  S
O130        C141   1.238       .  S
O131       Mg150   2.134       .  S
O132       Mg144   2.308       .  S
Mg133       O149   2.269       .  S
O134       Mg150   2.266       .  S
H135        C140   1.081       .  S
O136       Mg144   2.131       .  S
O136        C139   1.239       .  S
H137        C139   1.081       .  S
H138        C141   1.081       .  S
O143       Mg150   2.295   1_545  S
C146        C417   1.487       .  S
C146        O151   1.277       .  A
O147        C148   1.274       .  A
C148        C654   1.497       .  S
O153       Mg155   2.128   1_565  S
O153       Mg161   2.145       .  S
O153        C188   1.238       .  S
C154        H193   1.081       .  S
C154        O167   1.237       .  S
C154        O191   1.271       .  A
Mg155       O184   2.147       .  S
Mg155       O199   2.275       .  S
Mg155       O195   2.248       .  S
Mg155       O166   2.288   1_455  S
O156       Mg198   2.140       .  S
O156       Mg181   2.128       .  S
O156        C177   1.240       .  S
O157        C188   1.273   1_655  A
O157       Mg181   2.307       .  S
C158        C766   1.493       .  S
C158        O160   1.274       .  A
C158        O172   1.277       .  A
O159        C187   1.272       .  A
O159       Mg161   2.294   1_545  S
O160       Mg192   2.259   1_655  S
Mg161       O167   2.134       .  S
Mg161       O175   2.259       .  S
Mg161       O163   2.292       .  S
C162        C669   1.479   1_545  S
C162        O200   1.273       .  A
C162        O168   1.275   1_545  A
O163        C170   1.274       .  A
H164        C177   1.081       .  S
C165        H190   1.081       .  S
C165        O179   1.239   1_455  S
C165        O180   1.273       .  A
O166        C189   1.268       .  A
O167       Mg181   2.140   1_455  S
O168       Mg198   2.311       .  S
C169        C865   1.500       .  S
C169        O182   1.274       .  A
C169        O174   1.278       .  A
C170        C850   1.477       .  S
C170        O197   1.273       .  A
Mg171       O178   2.128       .  S
Mg171       O179   2.141       .  S
Mg171       O172   2.314       .  S
Mg171       O173   2.300       .  S
Mg171       O200   2.264       .  S
O173        C177   1.273   1_545  A
O174       Mg181   2.335       .  S
O175        C194   1.271   1_565  A
O176        C196   1.281       .  A
O176       Mg192   2.340       .  S
O178       Mg192   2.138   1_655  S
O178        C189   1.235       .  S
O179       Mg198   2.136   1_545  S
O180       Mg192   2.305       .  S
Mg181       O197   2.264   1_655  S
O182       Mg198   2.265       .  S
H183        C188   1.081   1_655  S
O184       Mg192   2.125       .  S
O184        C187   1.239       .  S
H185        C187   1.081       .  S
H186        C189   1.081       .  S
O191       Mg198   2.300   1_455  S
C194        C598   1.472       .  S
C194        O199   1.271       .  A
O195        C196   1.271       .  A
C196        C794   1.494       .  S
O201       Mg203   2.153   1_655  S
O201       Mg209   2.141       .  S
O201        C236   1.239       .  S
C202        H241   1.081       .  S
C202        O215   1.238       .  S
C202        O239   1.271       .  A
Mg203       O232   2.142       .  S
Mg203       O247   2.310       .  S
Mg203       O243   2.288       .  S
Mg203       O214   2.296       .  S
O204       Mg246   2.135       .  S
O204       Mg229   2.113       .  S
O204        C225   1.238       .  S
O205        C236   1.274       .  A
O205       Mg229   2.313       .  S
C206        C333   1.487       .  S
C206        O208   1.272       .  A
C206        O220   1.272       .  A
O207        C235   1.274   1_655  A
O207       Mg209   2.306       .  S
O208       Mg240   2.263       .  S
Mg209       O215   2.138       .  S
Mg209       O223   2.254       .  S
Mg209       O211   2.315       .  S
C210        C906   1.471       .  S
C210        O248   1.270   1_655  A
C210        O216   1.275       .  A
O211        C218   1.276       .  A
H212        C225   1.081       .  S
C213        H238   1.081       .  S
C213        O227   1.238       .  S
C213        O228   1.272       .  A
O214        C237   1.270       .  A
O215       Mg229   2.142       .  S
O216       Mg246   2.311       .  S
C217        C290   1.485       .  S
C217        O230   1.273       .  A
C217        O222   1.280       .  A
C218        C262   1.474       .  S
C218        O245   1.272       .  A
Mg219       O226   2.129       .  S
Mg219       O227   2.139       .  S
Mg219       O220   2.274       .  S
Mg219       O221   2.293   1_455  S
Mg219       O248   2.248       .  S
O221        C225   1.271       .  A
O222       Mg229   2.345       .  S
O223        C242   1.271       .  A
O224        C244   1.278       .  A
O224       Mg240   2.323       .  S
O226       Mg240   2.148       .  S
O226        C237   1.236       .  S
O227       Mg246   2.135   1_455  S
O228       Mg240   2.300       .  S
Mg229       O245   2.247       .  S
O230       Mg246   2.262       .  S
H231        C236   1.081       .  S
O232       Mg240   2.131       .  S
O232        C235   1.240       .  S
H233        C235   1.081       .  S
H234        C237   1.081       .  S
O239       Mg246   2.298       .  S
C242        C822   1.482       .  S
C242        O247   1.276   1_655  A
O243        C244   1.276       .  A
C244        C374   1.494       .  S
C249        C250   1.411       .  A
C249        C254   1.405       .  A
C250        C251   1.397       .  A
C250        N255   1.433       .  S
C251        C252   1.401       .  A
C251        H256   1.084       .  S
C252        C257   1.484       .  S
C252        C253   1.411       .  A
C253        C254   1.408       .  A
C253        N258   1.437       .  S
C254        H259   1.082       .  S
N255        H275   1.045       .  S
N255        H276   1.046       .  S
C257        C260   1.407       .  A
C257        C264   1.409       .  A
N258        H273   1.046       .  S
N258        H274   1.046       .  S
C260        C261   1.408       .  A
C260        H265   1.084       .  S
C261        C262   1.409       .  A
C261        N266   1.437       .  S
C262        C263   1.403       .  A
C263        C264   1.401       .  A
C263        H267   1.084       .  S
C264        N268   1.438       .  S
N266        H269   1.046       .  S
N266        H270   1.046       .  S
N268        H271   1.046       .  S
N268        H272   1.046       .  S
C277        C278   1.410       .  A
C277        C282   1.403       .  A
C278        C279   1.407       .  A
C278        N283   1.437       .  S
C279        C280   1.403       .  A
C279        H284   1.084       .  S
C280        C285   1.486       .  S
C280        C281   1.411       .  A
C281        C282   1.409       .  A
C281        N286   1.437       .  S
C282        H287   1.083       .  S
N283        H303   1.045       .  S
N283        H304   1.046       .  S
C285        C288   1.405       .  A
C285        C292   1.408       .  A
N286        H301   1.046       .  S
N286        H302   1.045       .  S
C288        C289   1.413       .  A
C288        H293   1.083       .  S
C289        C290   1.413       .  A
C289        N294   1.437       .  S
C290        C291   1.405       .  A
C291        C292   1.405       .  A
C291        H295   1.084       .  S
C292        N296   1.438       .  S
N294        H297   1.046       .  S
N294        H298   1.045       .  S
N296        H299   1.046       .  S
N296        H300   1.046       .  S
C305        C306   1.411       .  A
C305        C310   1.403       .  A
C306        C307   1.400       .  A
C306        N311   1.438       .  S
C307        C308   1.400       .  A
C307        H312   1.084       .  S
C308        C313   1.474       .  S
C308        C309   1.407       .  A
C309        C310   1.406       .  A
C309        N314   1.436       .  S
C310       H1235   1.083       .  S
N311        H331   1.045       .  S
N311        H332   1.046       .  S
C313        C316   1.403       .  A
C313        C320   1.403       .  A
N314        H329   1.046       .  S
N314        H330   1.046       .  S
H315       C1230   1.083       .  S
C316        C317   1.407       .  A
C316        H321   1.084       .  S
C317        C318   1.414       .  A
C317        N322   1.438       .  S
C318        C319   1.408       .  A
C319        C320   1.401       .  A
C319        H323   1.084       .  S
C320        N324   1.438       .  S
N322        H325   1.046       .  S
N322        H326   1.045       .  S
N324        H327   1.046       .  S
N324        H328   1.046       .  S
C333        C334   1.417       .  A
C333        C338   1.410       .  A
C334        C335   1.404       .  A
C334        N339   1.438       .  S
C335        C336   1.401       .  A
C335        H340   1.084       .  S
C336        C341   1.476       .  S
C336        C337   1.405       .  A
C337        C338   1.401       .  A
C337        N342   1.438       .  S
C338        H343   1.083       .  S
N339        H359   1.046       .  S
N339        H360   1.046       .  S
C341        C344   1.400       .  A
C341        C348   1.409       .  A
N342        H357   1.046       .  S
N342        H358   1.046       .  S
C344        C345   1.397       .  A
C344        H349   1.084       .  S
C345        C346   1.416       .  A
C345        N350   1.439       .  S
C346        C347   1.402       .  A
C347        C348   1.404       .  A
C347        H351   1.084       .  S
C348        N352   1.437       .  S
N350        H353   1.046       .  S
N350        H354   1.044       .  S
N352        H355   1.046       .  S
N352        H356   1.046       .  S
C361        C362   1.406       .  A
C361        C366   1.404       .  A
C362        C363   1.403       .  A
C362        N367   1.431       .  S
C363        C364   1.405       .  A
C363        H368   1.084       .  S
C364        C369   1.493       .  S
C364        C365   1.414       .  A
C365        C366   1.412       .  A
C365        N370   1.437       .  S
C366        H371   1.083       .  S
N367        H387   1.045       .  S
N367        H388   1.046       .  S
C369        C372   1.404       .  A
C369        C376   1.412       .  A
N370        H385   1.046       .  S
N370        H386   1.046       .  S
C372        C373   1.407       .  A
C372        H377   1.084       .  S
C373        C374   1.413       .  A
C373        N378   1.432       .  S
C374        C375   1.408       .  A
C375        C376   1.410       .  A
C375        H379   1.083       .  S
C376        N380   1.438       .  S
N378        H381   1.046       .  S
N378        H382   1.045       .  S
N380        H383   1.046       .  S
N380        H384   1.046       .  S
C389        C390   1.407       .  A
C389        C394   1.401       .  A
C390        C391   1.397       .  A
C390        N395   1.433       .  S
C391        C392   1.399       .  A
C391        H396   1.084       .  S
C392        C397   1.476       .  S
C392        C393   1.415       .  A
C393        C394   1.400       .  A
C393        N398   1.433       .  S
C394       H1319   1.084       .  S
N395        H415   1.046       .  S
N395        H416   1.045       .  S
C397        C400   1.401       .  A
C397        C404   1.409       .  A
N398        H414   1.045       .  S
N398       H1333   1.044       .  S
H399       C1314   1.084       .  S
C400        C401   1.397       .  A
C400        H405   1.084       .  S
C401        C402   1.410       .  A
C401        N406   1.433       .  S
C402        C403   1.406       .  A
C403        C404   1.407       .  A
C403        H407   1.084       .  S
C404        N408   1.437       .  S
N406        H409   1.046       .  S
N406        H410   1.046       .  S
N408        H411   1.046       .  S
N408        H412   1.046       .  S
H413       N1318   1.044       .  S
C417        C418   1.415       .  A
C417        C422   1.408       .  A
C418        C419   1.403       .  A
C418        N423   1.438       .  S
C419        C420   1.402       .  A
C419        H424   1.084       .  S
C420        C425   1.484       .  S
C420        C421   1.409       .  A
C421        C422   1.408       .  A
C421        N426   1.437       .  S
C422        H427   1.083       .  S
N423        H443   1.046       .  S
N423        H444   1.046       .  S
C425        C428   1.400       .  A
C425        C432   1.413       .  A
N426        H441   1.046       .  S
N426        H442   1.046       .  S
C428        C429   1.401       .  A
C428        H433   1.084       .  S
C429        C430   1.410       .  A
C429        N434   1.438       .  S
C430        C431   1.402       .  A
C431        C432   1.409       .  A
C431        H435   1.084       .  S
C432        N436   1.437       .  S
N434        H437   1.045       .  S
N434       H1358   1.045       .  S
N436        H439   1.046       .  S
N436        H440   1.046       .  S
H438       N1354   1.045       .  S
C445        C446   1.408       .  A
C445        C450   1.402       .  A
C446        C447   1.399       .  A
C446        N451   1.432       .  S
C447        C448   1.400       .  A
C447        H452   1.084       .  S
C448        C453   1.481       .  S
C448        C449   1.413       .  A
C449        C450   1.408       .  A
C449        N454   1.437       .  S
C450        H455   1.084       .  S
N451        H471   1.045       .  S
N451        H472   1.046       .  S
C453        C456   1.400       .  A
C453        C460   1.409       .  A
N454        H469   1.046       .  S
N454        H470   1.045       .  S
C456        C457   1.401       .  A
C456        H461   1.084       .  S
C457        C458   1.417       .  A
C457        N462   1.433       .  S
C458        C459   1.409       .  A
C459        C460   1.407       .  A
C459        H463   1.083       .  S
C460        N464   1.438       .  S
N462        H465   1.046       .  S
N462        H466   1.046       .  S
N464        H467   1.045       .  S
N464        H468   1.046       .  S
C473        C474   1.406       .  A
C473        C478   1.403       .  A
C474        C475   1.402       .  A
C474        N479   1.431       .  S
C475        C476   1.404       .  A
C475        H480   1.084       .  S
C476        C481   1.494       .  S
C476        C477   1.415       .  A
C477        C478   1.412       .  A
C477        N482   1.437       .  S
C478        H483   1.083       .  S
N479        H499   1.046       .  S
N479        H500   1.045       .  S
C481        C484   1.403       .  A
C481        C488   1.413       .  A
N482        H497   1.046       .  S
N482        H498   1.045       .  S
C484        C485   1.407       .  A
C484        H489   1.084       .  S
C485        C486   1.416       .  A
C485        N490   1.432       .  S
C486        C487   1.408       .  A
C487        C488   1.410       .  A
C487        H491   1.083       .  S
C488        N492   1.438       .  S
N490        H493   1.046       .  S
N490        H494   1.046       .  S
N492        H495   1.045       .  S
N492        H496   1.046       .  S
C501        C502   1.414       .  A
C501        C506   1.402       .  A
C502        C503   1.394       .  A
C502        N507   1.434       .  S
C503        C504   1.401       .  A
C503        H508   1.084       .  S
C504        C509   1.485       .  S
C504        C505   1.419       .  A
C505        C506   1.405       .  A
C505        N510   1.437       .  S
C506        H511   1.084       .  S
N507        H527   1.043       .  S
N507        H528   1.044       .  S
C509        C512   1.402       .  A
C509        C516   1.412       .  A
N510        H525   1.045       .  S
N510        H526   1.044       .  S
C512        C513   1.406       .  A
C512        H517   1.084       .  S
C513        C514   1.416       .  A
C513        N518   1.438       .  S
C514        C515   1.404       .  A
C515        C516   1.404       .  A
C515        H519   1.084       .  S
C516        N520   1.438       .  S
N518        H521   1.046       .  S
N518        H522   1.045       .  S
N520        H523   1.045       .  S
N520        H524   1.046       .  S
C529        C530   1.422       .  A
C529        C534   1.407       .  A
C530        C531   1.406       .  A
C530        N535   1.438       .  S
C531        C532   1.396       .  A
C531        H536   1.084       .  S
C532        C537   1.474       .  S
C532        C533   1.407       .  A
C533        C534   1.404       .  A
C533        N538   1.438       .  S
C534        H539   1.083       .  S
N535        H555   1.045       .  S
N535        H556   1.046       .  S
C537        C540   1.398       .  A
C537        C544   1.409       .  A
N538        H553   1.046       .  S
N538        H554   1.045       .  S
C540        C541   1.395       .  A
C540        H545   1.084       .  S
C541        C542   1.415       .  A
C541        N546   1.433       .  S
C542        C543   1.403       .  A
C543        C544   1.407       .  A
C543        H547   1.082       .  S
C544        N548   1.437       .  S
N546       H1469   1.045       .  S
N546       H1470   1.043       .  S
N548        H551   1.046       .  S
N548        H552   1.045       .  S
H549       N1466   1.045       .  S
H550       N1466   1.043       .  S
C557        C558   1.416       .  A
C557        C562   1.406       .  A
C558        C559   1.409       .  A
C558        N563   1.438       .  S
C559        C560   1.402       .  A
C559        H564   1.084       .  S
C560        C565   1.491       .  S
C560        C561   1.411       .  A
C561        C562   1.413       .  A
C561        N566   1.437       .  S
C562        H567   1.083       .  S
N563        H583   1.046       .  S
N563        H584   1.046       .  S
C565        C568   1.403       .  A
C565        C572   1.412       .  A
N566        H581   1.045       .  S
N566        H582   1.046       .  S
C568        C569   1.405       .  A
C568        H573   1.084       .  S
C569        C570   1.416       .  A
C569       N1494   1.437       .  S
C570        C571   1.403       .  A
C571        C572   1.410       .  A
C571        H575   1.083       .  S
C572        N576   1.437       .  S
N574       C1489   1.437       .  S
N574        H577   1.046       .  S
N574        H578   1.042       .  S
N576        H579   1.046       .  S
N576        H580   1.046       .  S
C585        C586   1.406       .  A
C585        C590   1.401       .  A
C586        C587   1.395       .  A
C586       N1511   1.433   1_545  S
C587        C588   1.398       .  A
C587        H592   1.084   1_545  S
C588        C593   1.469       .  S
C588        C589   1.410       .  A
C589        C590   1.408       .  A
C589        N594   1.437       .  S
C590        H595   1.084       .  S
N591       C1506   1.433   1_565  S
N591        H611   1.046       .  S
N591        H612   1.046       .  S
C593        C596   1.399       .  A
C593        C600   1.408       .  A
N594        H609   1.046       .  S
N594        H610   1.045       .  S
C596        C597   1.403       .  A
C596        H601   1.084       .  S
C597        C598   1.412       .  A
C597        N602   1.437   1_545  S
C598        C599   1.403       .  A
C599        C600   1.402       .  A
C599        H603   1.084       .  S
C600        N604   1.438       .  S
N602        H605   1.046       .  S
N602        H606   1.046   1_565  S
N604        H607   1.046       .  S
N604        H608   1.045       .  S
C613        C614   1.407       .  A
C613        C618   1.402       .  A
C614        C615   1.401       .  A
C614        N619   1.438       .  S
C615        C616   1.403       .  A
C615        H620   1.084       .  S
C616        C621   1.480   1_545  S
C616        C617   1.410   1_545  A
C617        C618   1.405   1_565  A
C617        N622   1.438       .  S
C618        H623   1.084   1_545  S
N619        H639   1.045       .  S
N619        H640   1.046       .  S
C621        C624   1.400       .  A
C621        C628   1.410       .  A
N622        H637   1.046       .  S
N622        H638   1.046       .  S
C624        C625   1.406       .  A
C624        H629   1.084       .  S
C625        C626   1.418       .  A
C625        N630   1.438       .  S
C626        C627   1.404       .  A
C627        C628   1.402       .  A
C627        H631   1.084       .  S
C628        N632   1.438   1_565  S
N630        H633   1.046       .  S
N630        H634   1.045       .  S
N632        H635   1.045       .  S
N632        H636   1.046   1_545  S
C641        C642   1.407       .  A
C641        C646   1.404       .  A
C642        C643   1.402       .  A
C642       N1567   1.436       .  S
C643        C644   1.403       .  A
C643        H648   1.084       .  S
C644        C649   1.491       .  S
C644        C645   1.414       .  A
C645        C646   1.412       .  A
C645        N650   1.437   1_545  S
C646        H651   1.083   1_545  S
N647       C1562   1.436       .  S
N647        H667   1.046       .  S
N647        H668   1.046       .  S
C649        C652   1.404       .  A
C649        C656   1.409       .  A
N650        H665   1.046       .  S
N650        H666   1.045       .  S
C652        C653   1.413       .  A
C652        H657   1.083       .  S
C653        C654   1.420       .  A
C653        N658   1.437       .  S
C654        C655   1.408       .  A
C655        C656   1.402       .  A
C655        H659   1.083       .  S
C656        N660   1.439       .  S
N658        H661   1.046       .  S
N658        H662   1.046   1_545  S
N660        H663   1.046       .  S
N660        H664   1.046       .  S
C669        C670   1.410       .  A
C669        C674   1.405   1_565  A
C670        C671   1.407       .  A
C670        N675   1.438       .  S
C671        C672   1.406       .  A
C671        H676   1.084       .  S
C672        C677   1.488       .  S
C672        C673   1.409   1_565  A
C673        C674   1.406       .  A
C673        N678   1.438       .  S
C674        H679   1.084       .  S
N675        H695   1.045       .  S
N675        H696   1.046       .  S
C677        C680   1.403   1_565  A
C677        C684   1.411       .  A
N678        H693   1.046       .  S
N678        H694   1.046   1_545  S
C680        C681   1.400       .  A
C680        H685   1.084       .  S
C681        C682   1.415   1_545  A
C681        N686   1.438       .  S
C682        C683   1.403       .  A
C683        C684   1.407       .  A
C683       H1607   1.084       .  S
C684        N688   1.437       .  S
N686        H689   1.044       .  S
N686        H690   1.044       .  S
H687       C1603   1.084       .  S
N688        H691   1.046       .  S
N688        H692   1.046       .  S
C697        C698   1.409   1_545  A
C697        C702   1.406       .  A
C698        C699   1.408       .  A
C698        N703   1.431       .  S
C699        C700   1.404   1_565  A
C699        H704   1.084       .  S
C700        C705   1.482       .  S
C700        C701   1.407       .  A
C701        C702   1.403       .  A
C701        N706   1.438       .  S
C702        H707   1.084       .  S
N703        H723   1.046   1_554  S
N703        H724   1.045       .  S
C705        C708   1.402       .  A
C705        C712   1.406       .  A
N706        H721   1.046       .  S
N706        H722   1.045       .  S
C708        C709   1.407       .  A
C708        H713   1.084   1_545  S
C709        C710   1.417       .  A
C709        N714   1.438   1_545  S
C710        C711   1.409       .  A
C711        C712   1.407       .  A
C711        H715   1.083       .  S
C712        N716   1.437       .  S
N714        H717   1.046       .  S
N714        H718   1.046   1_565  S
N716        H719   1.046       .  S
N716        H720   1.046       .  S
C725        C726   1.412   1_565  A
C725        C730   1.405       .  A
C726        C727   1.408       .  A
C726        N731   1.436       .  S
C727        C728   1.403   1_545  A
C727        H732   1.084       .  S
C728        C733   1.486       .  S
C728        C729   1.409       .  A
C729        C730   1.407       .  A
C729        N734   1.437       .  S
C730        H735   1.082       .  S
N731        H752   1.043       .  S
N731       H1671   1.046       .  S
C733        C736   1.402       .  A
C733        C740   1.406       .  A
N734        H749   1.046       .  S
N734        H750   1.046       .  S
C736        C737   1.412       .  A
C736        H741   1.084       .  S
C737        C738   1.420       .  A
C737        N742   1.438       .  S
C738        C739   1.411       .  A
C739        C740   1.406       .  A
C739        H743   1.083       .  S
C740        N744   1.438       .  S
N742        H745   1.046       .  S
N742        H746   1.045   1_565  S
N744        H747   1.045       .  S
N744        H748   1.046       .  S
H751       N1651   1.046       .  S
C753        C754   1.405       .  A
C753        C758   1.403       .  A
C754        C755   1.404       .  A
C754        N759   1.432   1_655  S
C755        C756   1.405       .  A
C755        H760   1.084   1_655  S
C756        C761   1.483       .  S
C756        C757   1.410       .  A
C757        C758   1.404       .  A
C757        N762   1.438       .  S
C758        H763   1.084       .  S
N759        H779   1.045       .  S
N759        H780   1.046       .  S
C761        C764   1.401       .  A
C761        C768   1.408       .  A
N762        H777   1.046       .  S
N762        H778   1.046       .  S
C764        C765   1.407       .  A
C764        H769   1.084       .  S
C765        C766   1.419       .  A
C765        N770   1.438       .  S
C766        C767   1.409       .  A
C767        C768   1.403       .  A
C767        H771   1.083   1_655  S
C768        N772   1.438   1_655  S
N770        H773   1.046       .  S
N770        H774   1.046       .  S
N772        H775   1.046       .  S
N772        H776   1.046   1_455  S
C781        C782   1.417       .  A
C781        C786   1.404   1_655  A
C782        C783   1.403       .  A
C782        N787   1.437       .  S
C783        C784   1.403   1_655  A
C783        H788   1.084       .  S
C784        C789   1.487       .  S
C784        C785   1.410       .  A
C785        C786   1.408       .  A
C785        N790   1.437       .  S
C786        H791   1.083       .  S
N787        H807   1.043       .  S
N787        H808   1.046       .  S
C789        C792   1.400       .  A
C789        C796   1.409   1_455  A
N790        H805   1.045       .  S
N790        H806   1.046       .  S
C792        C793   1.407       .  A
C792        H797   1.084       .  S
C793        C794   1.420       .  A
C793        N798   1.439       .  S
C794        C795   1.407       .  A
C795        C796   1.408   1_455  A
C795        H799   1.083   1_455  S
C796        N800   1.437       .  S
N798        H801   1.046       .  S
N798        H802   1.046       .  S
N800        H803   1.046       .  S
N800        H804   1.046       .  S
C809        C810   1.409   1_655  A
C809        C814   1.401       .  A
C810        C811   1.401       .  A
C810        N815   1.438       .  S
C811        C812   1.402   1_455  A
C811        H816   1.084       .  S
C812        C817   1.485       .  S
C812        C813   1.414       .  A
C813        C814   1.408       .  A
C813        N818   1.437       .  S
C814        H819   1.084       .  S
N815        H835   1.045       .  S
N815        H836   1.046       .  S
C817        C820   1.403       .  A
C817        C824   1.410   1_655  A
N818        H833   1.046       .  S
N818        H834   1.045       .  S
C820        C821   1.404       .  A
C820        H825   1.084       .  S
C821        C822   1.414       .  A
C821        N826   1.438       .  S
C822        C823   1.406   1_655  A
C823        C824   1.406       .  A
C823        H827   1.084       .  S
C824        N828   1.438       .  S
N826        H829   1.046       .  S
N826        H830   1.046       .  S
N828        H831   1.046       .  S
N828        H832   1.045       .  S
C837        C838   1.407       .  A
C837        C842   1.401       .  A
C838        C839   1.405       .  A
C838        N843   1.432   1_455  S
C839        C840   1.405       .  A
C839        H844   1.084   1_455  S
C840        C845   1.478       .  S
C840        C841   1.414       .  A
C841        C842   1.395       .  A
C841        N846   1.438       .  S
C842        H847   1.084       .  S
N843        H863   1.046   1_554  S
N843        H864   1.045       .  S
C845        C848   1.403       .  A
C845        C852   1.406       .  A
N846        H861   1.046       .  S
N846        H862   1.044       .  S
C848        C849   1.399       .  A
C848        H853   1.084       .  S
C849        C850   1.407       .  A
C849        N854   1.432       .  S
C850        C851   1.409       .  A
C851        C852   1.406       .  A
C851        H855   1.084       .  S
C852        N856   1.437       .  S
N854        H857   1.046       .  S
N854        H858   1.045       .  S
N856        H859   1.046       .  S
N856        H860   1.045       .  S
C865        C866   1.421       .  A
C865        C870   1.411       .  A
C866        C867   1.412   1_655  A
C866        N871   1.438   1_655  S
C867        C868   1.401   1_455  A
C867        H872   1.084       .  S
C868        C873   1.484   1_655  S
C868        C869   1.406       .  A
C869        C870   1.405       .  A
C869        N874   1.438       .  S
C870        H875   1.083       .  S
N871        H891   1.045       .  S
N871        H892   1.046       .  S
C873        C876   1.401       .  A
C873        C880   1.411   1_455  A
N874        H889   1.046       .  S
N874        H890   1.045       .  S
C876        C877   1.405       .  A
C876        H881   1.084       .  S
C877        C878   1.412       .  A
C877        N882   1.431       .  S
C878        C879   1.405   1_455  A
C879        C880   1.403       .  A
C879        H883   1.082       .  S
C880        N884   1.432       .  S
N882        H885   1.045       .  S
N882        H886   1.046       .  S
N884        H887   1.046       .  S
N884        H888   1.045       .  S
C893        C894   1.414   1_455  A
C893        C898   1.401       .  A
C894        C895   1.397       .  A
C894        N899   1.433       .  S
C895        C896   1.400       .  A
C895        H900   1.084       .  S
C896        C901   1.479       .  S
C896        C897   1.414   1_655  A
C897        C898   1.401       .  A
C897        N902   1.433       .  S
C898        H903   1.084       .  S
N899        H919   1.044       .  S
N899        H920   1.045       .  S
C901        C904   1.402       .  A
C901        C908   1.409   1_655  A
N902        H917   1.043       .  S
N902        H918   1.046       .  S
C904        C905   1.407       .  A
C904        H909   1.084       .  S
C905        C906   1.412       .  A
C905        N910   1.438       .  S
C906        C907   1.401   1_655  A
C907        C908   1.400       .  A
C907        H911   1.084       .  S
C908        N912   1.433       .  S
N910        H913   1.046       .  S
N910        H914   1.045       .  S
N912        H915   1.045       .  S
N912        H916   1.046       .  S
N921        C922   1.359       .  A
N921       C1798   1.446       .  S
C922       C1813   1.473       .  S
C923        C924   1.367       .  A
C923        H926   1.082       .  S
C924        C925   1.380       .  A
C924        H927   1.082       .  S
C925       C1757   1.474       .  S
N928        C929   1.358       .  A
N928       C1701   1.445       .  S
C929       C1729   1.477       .  S
C930        C931   1.369       .  A
C930        H933   1.082       .  S
C931        C932   1.381       .  A
C931        H934   1.082       .  S
C932       C1673   1.474       .  S
N935        C936   1.359       .  A
N935       C1645   1.445       .  S
C936       C1602   1.475       .  S
C937        C938   1.369   1_565  A
C937        H940   1.082       .  S
C938        C939   1.384       .  A
C938        H941   1.082       .  S
C939       C1617   1.485       .  S
N942        C943   1.354       .  A
N942       C1561   1.444       .  S
C943       C1505   1.468       .  S
C944        C945   1.371       .  A
C944        H947   1.082       .  S
C945        C946   1.382       .  A
C945        H948   1.082       .  S
C946       C1533   1.473       .  S
N949        C950   1.358       .  A
N949       C1490   1.442       .  S
C950       C1421   1.478       .  S
C951        C952   1.369       .  A
C951        H954   1.082       .  S
C952        C953   1.382       .  A
C952        H955   1.082       .  S
C953       C1462   1.476       .  S
N956        C957   1.357       .  A
N956       C1393   1.443       .  S
C957       C1350   1.477       .  S
C958        C959   1.369       .  A
C958        H961   1.082       .  S
C959        C960   1.382       .  A
C959        H962   1.082       .  S
C960       C1365   1.478       .  S
N963        C964   1.354       .  A
N963       C1281   1.444       .  S
C964       C1309   1.469       .  S
C965        C966   1.369       .  A
C965        H968   1.082       .  S
C966        C967   1.381       .  A
C966        H969   1.082       .  S
C967       C1266   1.473       .  S
N970        C971   1.358       .  A
N970       C1197   1.444       .  S
C971       C1225   1.477       .  S
C972        C973   1.369       .  A
C972        H975   1.082       .  S
C973        C974   1.384       .  A
C973        H976   1.082       .  S
C974       C1169   1.481       .  S
O977       Mg979   2.151       .  S
O977       Mg985   2.134       .  S
O977       C1012   1.240       .  S
C978       H1017   1.081       .  S
C978        O991   1.237       .  S
C978       O1015   1.270       .  A
Mg979      O1008   2.140       .  S
Mg979      O1023   2.306       .  S
Mg979      O1019   2.276       .  S
Mg979       O990   2.294       .  S
O980      Mg1022   2.141       .  S
O980      Mg1005   2.119       .  S
O980       C1001   1.240       .  S
O981       C1012   1.275       .  A
O981      Mg1005   2.319       .  S
C982       C1378   1.492       .  S
C982        O984   1.272       .  A
C982        O996   1.277       .  A
O983       C1011   1.273       .  A
O983       Mg985   2.304       .  S
O984      Mg1016   2.257       .  S
Mg985       O991   2.120       .  S
Mg985       O999   2.231       .  S
Mg985       O987   2.286       .  S
C986       C1238   1.485       .  S
C986       O1024   1.272       .  A
C986        O992   1.276       .  A
O987        C994   1.271       .  A
H988       C1001   1.081       .  S
C989       H1014   1.081       .  S
C989       O1003   1.238       .  S
C989       O1004   1.272       .  A
O990       C1013   1.269       .  A
O991      Mg1005   2.135       .  S
O992      Mg1022   2.316       .  S
C993       C1477   1.491       .  S
C993       O1006   1.276       .  A
C993        O998   1.279       .  A
C994       C1449   1.484       .  S
C994       O1021   1.273       .  A
Mg995      O1002   2.126       .  S
Mg995      O1003   2.138       .  S
Mg995       O996   2.310       .  S
Mg995       O997   2.296       .  S
Mg995      O1024   2.241       .  S
O997       C1001   1.273       .  A
O998      Mg1005   2.338       .  S
O999       C1018   1.268       .  A
O1000      C1020   1.279       .  A
O1000     Mg1016   2.332       .  S
O1002     Mg1016   2.138       .  S
O1002      C1013   1.236       .  S
O1003     Mg1022   2.141       .  S
O1004     Mg1016   2.302       .  S
Mg1005     O1021   2.266       .  S
O1006     Mg1022   2.277       .  S
H1007      C1012   1.081       .  S
O1008     Mg1016   2.125       .  S
O1008      C1011   1.239       .  S
H1009      C1011   1.081       .  S
H1010      C1013   1.081       .  S
O1015     Mg1022   2.295       .  S
C1018      C1322   1.474       .  S
C1018      O1023   1.274       .  A
O1019      C1020   1.274       .  A
C1020      C1406   1.495       .  S
O1025     Mg1027   2.142       .  S
O1025     Mg1033   2.135       .  S
O1025      C1060   1.238   1_545  S
C1026      H1065   1.081       .  S
C1026      O1039   1.237       .  S
C1026      O1063   1.270       .  A
Mg1027     O1056   2.135       .  S
Mg1027     O1071   2.321       .  S
Mg1027     O1067   2.267       .  S
Mg1027     O1038   2.302   1_545  S
O1028     Mg1070   2.143       .  S
O1028     Mg1053   2.135       .  S
O1028      C1049   1.240       .  S
O1029      C1060   1.272       .  A
O1029     Mg1053   2.305       .  S
C1030      C1546   1.484       .  S
C1030      O1032   1.274       .  A
C1030      O1044   1.274       .  A
O1031      C1059   1.274       .  A
O1031     Mg1033   2.306       .  S
O1032     Mg1064   2.267   1_565  S
Mg1033     O1039   2.123       .  S
Mg1033     O1047   2.251       .  S
Mg1033     O1035   2.323       .  S
C1034      C1434   1.486       .  S
C1034      O1072   1.273       .  A
C1034      O1040   1.274       .  A
O1035      C1042   1.278       .  A
H1036      C1049   1.081       .  S
C1037      H1062   1.081       .  S
C1037      O1051   1.239   1_545  S
C1037      O1052   1.273       .  A
O1038      C1061   1.272       .  A
O1039     Mg1053   2.139   1_545  S
O1040     Mg1070   2.306       .  S
C1041      C1658   1.497       .  S
C1041      O1054   1.273       .  A
C1041      O1046   1.277       .  A
C1042      C1630   1.490       .  S
C1042      O1069   1.273   1_545  A
Mg1043     O1050   2.137       .  S
Mg1043     O1051   2.133       .  S
Mg1043     O1044   2.306       .  S
Mg1043     O1045   2.304       .  S
Mg1043     O1072   2.269       .  S
O1045      C1049   1.274       .  A
O1046     Mg1053   2.326       .  S
O1047      C1066   1.271       .  A
O1048      C1068   1.279       .  A
O1048     Mg1064   2.344       .  S
O1050     Mg1064   2.137   1_565  S
O1050      C1061   1.238       .  S
O1051     Mg1070   2.133       .  S
O1052     Mg1064   2.309       .  S
Mg1053     O1069   2.267       .  S
O1054     Mg1070   2.262       .  S
H1055      C1060   1.081       .  S
O1056     Mg1064   2.136       .  S
O1056      C1059   1.240       .  S
H1057      C1059   1.081       .  S
H1058      C1061   1.081       .  S
O1063     Mg1070   2.295   1_545  S
C1066      C1337   1.485       .  S
C1066      O1071   1.277       .  A
O1067      C1068   1.275       .  A
C1068      C1574   1.501       .  S
O1073     Mg1075   2.130   1_565  S
O1073     Mg1081   2.143       .  S
O1073      C1108   1.238       .  S
C1074      H1113   1.081       .  S
C1074      O1087   1.237       .  S
C1074      O1111   1.271       .  A
Mg1075     O1104   2.144       .  S
Mg1075     O1119   2.277       .  S
Mg1075     O1115   2.253       .  S
Mg1075     O1086   2.289   1_455  S
O1076     Mg1118   2.141       .  S
O1076     Mg1101   2.124       .  S
O1076      C1097   1.239       .  S
O1077      C1108   1.272   1_655  A
O1077     Mg1101   2.306       .  S
C1078      C1686   1.491       .  S
C1078      O1080   1.274       .  A
C1078      O1092   1.276       .  A
O1079      C1107   1.273       .  A
O1079     Mg1081   2.297   1_545  S
O1080     Mg1112   2.259   1_655  S
Mg1081     O1087   2.128       .  S
Mg1081     O1095   2.254       .  S
Mg1081     O1083   2.297       .  S
C1082      C1589   1.477   1_545  S
C1082      O1120   1.273       .  A
C1082      O1088   1.275   1_545  A
O1083      C1090   1.274       .  A
H1084      C1097   1.081       .  S
C1085      H1110   1.081       .  S
C1085      O1099   1.239   1_455  S
C1085      O1100   1.273       .  A
O1086      C1109   1.268       .  A
O1087     Mg1101   2.138   1_455  S
O1088     Mg1118   2.306       .  S
C1089      C1785   1.497       .  S
C1089      O1102   1.274       .  A
C1089      O1094   1.277       .  A
C1090      C1770   1.477       .  S
C1090      O1117   1.273       .  A
Mg1091     O1098   2.127       .  S
Mg1091     O1099   2.142       .  S
Mg1091     O1092   2.306       .  S
Mg1091     O1093   2.297       .  S
Mg1091     O1120   2.262       .  S
O1093      C1097   1.272   1_545  A
O1094     Mg1101   2.324       .  S
O1095      C1114   1.271   1_565  A
O1096      C1116   1.281       .  A
O1096     Mg1112   2.343       .  S
O1098     Mg1112   2.138   1_655  S
O1098      C1109   1.235       .  S
O1099     Mg1118   2.134   1_545  S
O1100     Mg1112   2.305       .  S
Mg1101     O1117   2.262   1_655  S
O1102     Mg1118   2.259       .  S
H1103      C1108   1.081   1_655  S
O1104     Mg1112   2.126       .  S
O1104      C1107   1.240       .  S
H1105      C1107   1.081       .  S
H1106      C1109   1.081       .  S
O1111     Mg1118   2.298   1_455  S
C1114      C1518   1.473       .  S
C1114      O1119   1.271       .  A
O1115      C1116   1.272       .  A
C1116      C1714   1.495       .  S
O1121     Mg1123   2.149   1_655  S
O1121     Mg1129   2.140       .  S
O1121      C1156   1.239       .  S
C1122      H1161   1.081       .  S
C1122      O1135   1.238       .  S
C1122      O1159   1.271       .  A
Mg1123     O1152   2.141       .  S
Mg1123     O1167   2.315       .  S
Mg1123     O1163   2.281       .  S
Mg1123     O1134   2.297       .  S
O1124     Mg1166   2.135       .  S
O1124     Mg1149   2.115       .  S
O1124      C1145   1.238       .  S
O1125      C1156   1.274       .  A
O1125     Mg1149   2.310       .  S
C1126      C1253   1.489       .  S
C1126      O1128   1.272       .  A
C1126      O1140   1.272       .  A
O1127      C1155   1.274   1_655  A
O1127     Mg1129   2.306       .  S
O1128     Mg1160   2.270       .  S
Mg1129     O1135   2.142       .  S
Mg1129     O1143   2.263       .  S
Mg1129     O1131   2.316       .  S
C1130      C1826   1.475       .  S
C1130      O1168   1.270   1_655  A
C1130      O1136   1.276       .  A
O1131      C1138   1.276       .  A
H1132      C1145   1.081       .  S
C1133      H1158   1.081       .  S
C1133      O1147   1.238       .  S
C1133      O1148   1.272       .  A
O1134      C1157   1.270       .  A
O1135     Mg1149   2.143       .  S
O1136     Mg1166   2.315       .  S
C1137      C1210   1.493       .  S
C1137      O1150   1.274       .  A
C1137      O1142   1.280       .  A
C1138      C1182   1.472       .  S
C1138      O1165   1.272       .  A
Mg1139     O1146   2.129       .  S
Mg1139     O1147   2.142       .  S
Mg1139     O1140   2.275       .  S
Mg1139     O1141   2.294   1_455  S
Mg1139     O1168   2.244       .  S
O1141      C1145   1.271       .  A
O1142     Mg1149   2.345       .  S
O1143      C1162   1.272       .  A
O1144      C1164   1.279       .  A
O1144     Mg1160   2.331       .  S
O1146     Mg1160   2.147       .  S
O1146      C1157   1.236       .  S
O1147     Mg1166   2.140   1_455  S
O1148     Mg1160   2.304       .  S
Mg1149     O1165   2.247       .  S
O1150     Mg1166   2.269       .  S
H1151      C1156   1.081       .  S
O1152     Mg1160   2.134       .  S
O1152      C1155   1.240       .  S
H1153      C1155   1.081       .  S
H1154      C1157   1.081       .  S
O1159     Mg1166   2.300       .  S
C1162      C1742   1.485       .  S
C1162      O1167   1.276   1_655  A
O1163      C1164   1.275       .  A
C1164      C1294   1.496       .  S
C1169      C1170   1.410       .  A
C1169      C1174   1.404       .  A
C1170      C1171   1.398       .  A
C1170      N1175   1.433       .  S
C1171      C1172   1.401       .  A
C1171      H1176   1.084       .  S
C1172      C1177   1.482       .  S
C1172      C1173   1.410       .  A
C1173      C1174   1.407       .  A
C1173      N1178   1.437       .  S
C1174      H1179   1.082       .  S
N1175      H1195   1.046       .  S
N1175      H1196   1.046       .  S
C1177      C1180   1.406       .  A
C1177      C1184   1.408       .  A
N1178      H1193   1.046       .  S
N1178      H1194   1.046       .  S
C1180      C1181   1.408       .  A
C1180      H1185   1.084       .  S
C1181      C1182   1.408       .  A
C1181      N1186   1.437       .  S
C1182      C1183   1.403       .  A
C1183      C1184   1.401       .  A
C1183      H1187   1.084       .  S
C1184      N1188   1.438       .  S
N1186      H1189   1.046       .  S
N1186      H1190   1.046       .  S
N1188      H1191   1.046       .  S
N1188      H1192   1.046       .  S
C1197      C1198   1.410       .  A
C1197      C1202   1.403       .  A
C1198      C1199   1.407       .  A
C1198      N1203   1.436       .  S
C1199      C1200   1.402       .  A
C1199      H1204   1.084       .  S
C1200      C1205   1.487       .  S
C1200      C1201   1.412       .  A
C1201      C1202   1.410       .  A
C1201      N1206   1.438       .  S
C1202      H1207   1.083       .  S
N1203      H1223   1.045       .  S
N1203      H1224   1.046       .  S
C1205      C1208   1.404       .  A
C1205      C1212   1.408       .  A
N1206      H1221   1.046       .  S
N1206      H1222   1.045       .  S
C1208      C1209   1.414       .  A
C1208      H1213   1.084       .  S
C1209      C1210   1.416       .  A
C1209      N1214   1.437       .  S
C1210      C1211   1.407       .  A
C1211      C1212   1.406       .  A
C1211      H1215   1.084       .  S
C1212      N1216   1.439       .  S
N1214      H1217   1.046       .  S
N1214      H1218   1.045       .  S
N1216      H1219   1.046       .  S
N1216      H1220   1.045       .  S
C1225      C1226   1.412       .  A
C1225      C1230   1.403       .  A
C1226      C1227   1.400       .  A
C1226      N1231   1.438       .  S
C1227      C1228   1.400       .  A
C1227      H1232   1.084       .  S
C1228      C1233   1.477       .  S
C1228      C1229   1.408       .  A
C1229      C1230   1.407       .  A
C1229      N1234   1.437       .  S
N1231      H1251   1.045       .  S
N1231      H1252   1.046       .  S
C1233      C1236   1.403       .  A
C1233      C1240   1.404       .  A
N1234      H1249   1.046       .  S
N1234      H1250   1.046       .  S
C1236      C1237   1.408       .  A
C1236      H1241   1.084       .  S
C1237      C1238   1.415       .  A
C1237      N1242   1.438       .  S
C1238      C1239   1.409       .  A
C1239      C1240   1.401       .  A
C1239      H1243   1.083       .  S
C1240      N1244   1.438       .  S
N1242      H1245   1.046       .  S
N1242      H1246   1.045       .  S
N1244      H1247   1.045       .  S
N1244      H1248   1.046       .  S
C1253      C1254   1.417       .  A
C1253      C1258   1.410       .  A
C1254      C1255   1.405       .  A
C1254      N1259   1.438       .  S
C1255      C1256   1.402       .  A
C1255      H1260   1.084       .  S
C1256      C1261   1.480       .  S
C1256      C1257   1.406       .  A
C1257      C1258   1.402       .  A
C1257      N1262   1.438       .  S
C1258      H1263   1.083       .  S
N1259      H1279   1.046       .  S
N1259      H1280   1.046       .  S
C1261      C1264   1.401       .  A
C1261      C1268   1.410       .  A
N1262      H1277   1.046       .  S
N1262      H1278   1.045       .  S
C1264      C1265   1.398       .  A
C1264      H1269   1.084       .  S
C1265      C1266   1.416       .  A
C1265      N1270   1.439       .  S
C1266      C1267   1.402       .  A
C1267      C1268   1.405       .  A
C1267      H1271   1.084       .  S
C1268      N1272   1.437       .  S
N1270      H1273   1.046       .  S
N1270      H1274   1.044       .  S
N1272      H1275   1.046       .  S
N1272      H1276   1.046       .  S
C1281      C1282   1.407       .  A
C1281      C1286   1.404       .  A
C1282      C1283   1.404       .  A
C1282      N1287   1.431       .  S
C1283      C1284   1.404       .  A
C1283      H1288   1.084       .  S
C1284      C1289   1.490       .  S
C1284      C1285   1.413       .  A
C1285      C1286   1.410       .  A
C1285      N1290   1.437       .  S
C1286      H1291   1.083       .  S
N1287      H1307   1.046       .  S
N1287      H1308   1.045       .  S
C1289      C1292   1.402       .  A
C1289      C1296   1.411       .  A
N1290      H1305   1.046       .  S
N1290      H1306   1.046       .  S
C1292      C1293   1.405       .  A
C1292      H1297   1.084       .  S
C1293      C1294   1.415       .  A
C1293      N1298   1.432       .  S
C1294      C1295   1.409       .  A
C1295      C1296   1.411       .  A
C1295      H1299   1.083       .  S
C1296      N1300   1.438       .  S
N1298      H1301   1.046       .  S
N1298      H1302   1.046       .  S
N1300      H1303   1.046       .  S
N1300      H1304   1.046       .  S
C1309      C1310   1.406       .  A
C1309      C1314   1.401       .  A
C1310      C1311   1.396       .  A
C1310      N1315   1.433       .  S
C1311      C1312   1.400       .  A
C1311      H1316   1.084       .  S
C1312      C1317   1.475       .  S
C1312      C1313   1.415       .  A
C1313      C1314   1.400       .  A
C1313      N1318   1.433       .  S
N1315      H1335   1.046       .  S
N1315      H1336   1.045       .  S
C1317      C1320   1.401       .  A
C1317      C1324   1.408       .  A
N1318      H1334   1.045       .  S
C1320      C1321   1.397       .  A
C1320      H1325   1.084       .  S
C1321      C1322   1.409       .  A
C1321      N1326   1.433       .  S
C1322      C1323   1.405       .  A
C1323      C1324   1.406       .  A
C1323      H1327   1.084       .  S
C1324      N1328   1.437       .  S
N1326      H1329   1.046       .  S
N1326      H1330   1.046       .  S
N1328      H1331   1.045       .  S
N1328      H1332   1.046       .  S
C1337      C1338   1.415       .  A
C1337      C1342   1.408       .  A
C1338      C1339   1.403       .  A
C1338      N1343   1.438       .  S
C1339      C1340   1.401       .  A
C1339      H1344   1.084       .  S
C1340      C1345   1.481       .  S
C1340      C1341   1.408       .  A
C1341      C1342   1.408       .  A
C1341      N1346   1.437       .  S
C1342      H1347   1.083       .  S
N1343      H1363   1.046       .  S
N1343      H1364   1.046       .  S
C1345      C1348   1.400       .  A
C1345      C1352   1.412       .  A
N1346      H1361   1.046       .  S
N1346      H1362   1.046       .  S
C1348      C1349   1.401       .  A
C1348      H1353   1.084       .  S
C1349      C1350   1.410       .  A
C1349      N1354   1.438       .  S
C1350      C1351   1.402       .  A
C1351      C1352   1.409       .  A
C1351      H1355   1.084       .  S
C1352      N1356   1.437       .  S
N1354      H1357   1.045       .  S
N1356      H1359   1.046       .  S
N1356      H1360   1.046       .  S
C1365      C1366   1.408       .  A
C1365      C1370   1.402       .  A
C1366      C1367   1.399       .  A
C1366      N1371   1.432       .  S
C1367      C1368   1.400       .  A
C1367      H1372   1.084       .  S
C1368      C1373   1.482       .  S
C1368      C1369   1.413       .  A
C1369      C1370   1.408       .  A
C1369      N1374   1.437       .  S
C1370      H1375   1.083       .  S
N1371      H1391   1.045       .  S
N1371      H1392   1.046       .  S
C1373      C1376   1.400       .  A
C1373      C1380   1.407       .  A
N1374      H1389   1.046       .  S
N1374      H1390   1.045       .  S
C1376      C1377   1.405       .  A
C1376      H1381   1.084       .  S
C1377      C1378   1.420       .  A
C1377      N1382   1.438       .  S
C1378      C1379   1.409       .  A
C1379      C1380   1.405       .  A
C1379      H1383   1.083       .  S
C1380      N1384   1.438       .  S
N1382      H1385   1.046       .  S
N1382      H1386   1.046       .  S
N1384      H1387   1.046       .  S
N1384      H1388   1.046       .  S
C1393      C1394   1.406       .  A
C1393      C1398   1.404       .  A
C1394      C1395   1.402       .  A
C1394      N1399   1.431       .  S
C1395      C1396   1.404       .  A
C1395      H1400   1.084       .  S
C1396      C1401   1.493       .  S
C1396      C1397   1.415       .  A
C1397      C1398   1.412       .  A
C1397      N1402   1.437       .  S
C1398      H1403   1.083       .  S
N1399      H1419   1.046       .  S
N1399      H1420   1.045       .  S
C1401      C1404   1.403       .  A
C1401      C1408   1.413       .  A
N1402      H1417   1.046       .  S
N1402      H1418   1.045       .  S
C1404      C1405   1.407       .  A
C1404      H1409   1.084       .  S
C1405      C1406   1.415       .  A
C1405      N1410   1.432       .  S
C1406      C1407   1.407       .  A
C1407      C1408   1.410       .  A
C1407      H1411   1.083       .  S
C1408      N1412   1.438       .  S
N1410      H1413   1.046       .  S
N1410      H1414   1.045       .  S
N1412      H1415   1.046       .  S
N1412      H1416   1.046       .  S
C1421      C1422   1.414       .  A
C1421      C1426   1.402       .  A
C1422      C1423   1.396       .  A
C1422      N1427   1.434       .  S
C1423      C1424   1.402       .  A
C1423      H1428   1.084       .  S
C1424      C1429   1.489       .  S
C1424      C1425   1.420       .  A
C1425      C1426   1.405       .  A
C1425      N1430   1.437       .  S
C1426      H1431   1.084       .  S
N1427      H1447   1.043       .  S
N1427      H1448   1.045       .  S
C1429      C1432   1.403       .  A
C1429      C1436   1.413       .  A
N1430      H1445   1.045       .  S
N1430      H1446   1.044       .  S
C1432      C1433   1.408       .  A
C1432      H1437   1.084       .  S
C1433      C1434   1.417       .  A
C1433      N1438   1.438       .  S
C1434      C1435   1.405       .  A
C1435      C1436   1.405       .  A
C1435      H1439   1.084       .  S
C1436      N1440   1.438       .  S
N1438      H1441   1.046       .  S
N1438      H1442   1.045       .  S
N1440      H1443   1.045       .  S
N1440      H1444   1.046       .  S
C1449      C1450   1.421       .  A
C1449      C1454   1.405       .  A
C1450      C1451   1.405       .  A
C1450      N1455   1.438       .  S
C1451      C1452   1.397       .  A
C1451      H1456   1.084       .  S
C1452      C1457   1.473       .  S
C1452      C1453   1.407       .  A
C1453      C1454   1.403       .  A
C1453      N1458   1.438       .  S
C1454      H1459   1.083       .  S
N1455      H1475   1.045       .  S
N1455      H1476   1.046       .  S
C1457      C1460   1.398       .  A
C1457      C1464   1.409       .  A
N1458      H1473   1.045       .  S
N1458      H1474   1.046       .  S
C1460      C1461   1.393       .  A
C1460      H1465   1.084       .  S
C1461      C1462   1.415       .  A
C1461      N1466   1.433       .  S
C1462      C1463   1.404       .  A
C1463      C1464   1.407       .  A
C1463      H1467   1.082       .  S
C1464      N1468   1.437       .  S
N1468      H1471   1.046       .  S
N1468      H1472   1.045       .  S
C1477      C1478   1.417       .  A
C1477      C1482   1.407       .  A
C1478      C1479   1.408       .  A
C1478      N1483   1.438       .  S
C1479      C1480   1.401       .  A
C1479      H1484   1.084       .  S
C1480      C1485   1.488       .  S
C1480      C1481   1.410       .  A
C1481      C1482   1.412       .  A
C1481      N1486   1.437       .  S
C1482      H1487   1.083       .  S
N1483      H1503   1.046       .  S
N1483      H1504   1.046       .  S
C1485      C1488   1.402       .  A
C1485      C1492   1.411       .  A
N1486      H1501   1.045       .  S
N1486      H1502   1.046       .  S
C1488      C1489   1.404       .  A
C1488      H1493   1.084       .  S
C1489      C1490   1.415       .  A
C1490      C1491   1.403       .  A
C1491      C1492   1.410       .  A
C1491      H1495   1.083       .  S
C1492      N1496   1.437       .  S
N1494      H1497   1.046       .  S
N1494      H1498   1.042       .  S
N1496      H1499   1.046       .  S
N1496      H1500   1.046       .  S
C1505      C1506   1.407       .  A
C1505      C1510   1.402       .  A
C1506      C1507   1.394       .  A
C1507      C1508   1.397       .  A
C1507      H1512   1.084   1_545  S
C1508      C1513   1.468       .  S
C1508      C1509   1.410       .  A
C1509      C1510   1.408       .  A
C1509      N1514   1.437       .  S
C1510      H1515   1.084       .  S
N1511      H1531   1.046       .  S
N1511      H1532   1.046   1_554  S
C1513      C1516   1.398       .  A
C1513      C1520   1.408       .  A
N1514      H1529   1.046       .  S
N1514      H1530   1.045       .  S
C1516      C1517   1.403       .  A
C1516      H1521   1.084   1_545  S
C1517      C1518   1.413       .  A
C1517      N1522   1.438   1_545  S
C1518      C1519   1.403       .  A
C1519      C1520   1.401       .  A
C1519      H1523   1.084       .  S
C1520      N1524   1.438       .  S
N1522      H1525   1.046       .  S
N1522      H1526   1.046       .  S
N1524      H1527   1.046       .  S
N1524      H1528   1.045       .  S
C1533      C1534   1.407       .  A
C1533      C1538   1.403       .  A
C1534      C1535   1.401       .  A
C1534      N1539   1.438       .  S
C1535      C1536   1.403       .  A
C1535      H1540   1.084       .  S
C1536      C1541   1.481   1_545  S
C1536      C1537   1.410   1_545  A
C1537      C1538   1.405   1_565  A
C1537      N1542   1.437       .  S
C1538      H1543   1.084   1_545  S
N1539      H1559   1.045       .  S
N1539      H1560   1.046       .  S
C1541      C1544   1.400       .  A
C1541      C1548   1.410       .  A
N1542      H1557   1.046       .  S
N1542      H1558   1.046       .  S
C1544      C1545   1.407       .  A
C1544      H1549   1.084       .  S
C1545      C1546   1.419       .  A
C1545      N1550   1.438       .  S
C1546      C1547   1.404       .  A
C1547      C1548   1.402       .  A
C1547      H1551   1.084       .  S
C1548      N1552   1.438   1_565  S
N1550      H1553   1.046       .  S
N1550      H1554   1.045       .  S
N1552      H1555   1.045       .  S
N1552      H1556   1.046   1_545  S
C1561      C1562   1.408       .  A
C1561      C1566   1.404       .  A
C1562      C1563   1.403       .  A
C1563      C1564   1.404       .  A
C1563      H1568   1.084       .  S
C1564      C1569   1.495       .  S
C1564      C1565   1.415       .  A
C1565      C1566   1.414       .  A
C1565      N1570   1.437   1_545  S
C1566      H1571   1.083   1_545  S
N1567      H1587   1.045       .  S
N1567      H1588   1.046       .  S
C1569      C1572   1.405       .  A
C1569      C1576   1.410       .  A
N1570      H1585   1.046       .  S
N1570      H1586   1.045       .  S
C1572      C1573   1.415       .  A
C1572      H1577   1.083       .  S
C1573      C1574   1.420       .  A
C1573      N1578   1.437       .  S
C1574      C1575   1.409       .  A
C1575      C1576   1.404       .  A
C1575      H1579   1.083       .  S
C1576      N1580   1.439       .  S
N1578      H1581   1.046       .  S
N1578      H1582   1.046   1_545  S
N1580      H1583   1.045       .  S
N1580      H1584   1.046       .  S
C1589      C1590   1.410       .  A
C1589      C1594   1.405   1_565  A
C1590      C1591   1.407       .  A
C1590      N1595   1.438       .  S
C1591      C1592   1.406       .  A
C1591      H1596   1.084       .  S
C1592      C1597   1.486       .  S
C1592      C1593   1.409   1_565  A
C1593      C1594   1.405       .  A
C1593      N1598   1.437       .  S
C1594      H1599   1.084       .  S
N1595      H1615   1.045       .  S
N1595      H1616   1.046       .  S
C1597      C1600   1.403   1_565  A
C1597      C1604   1.410       .  A
N1598      H1613   1.046       .  S
N1598      H1614   1.046   1_545  S
C1600      C1601   1.400       .  A
C1600      H1605   1.084       .  S
C1601      C1602   1.415   1_545  A
C1601      N1606   1.438       .  S
C1602      C1603   1.403       .  A
C1603      C1604   1.406       .  A
C1604      N1608   1.437       .  S
N1606      H1609   1.044       .  S
N1606      H1610   1.043       .  S
N1608      H1611   1.046       .  S
N1608      H1612   1.046       .  S
C1617      C1618   1.409   1_545  A
C1617      C1622   1.406       .  A
C1618      C1619   1.407       .  A
C1618      N1623   1.431       .  S
C1619      C1620   1.404   1_565  A
C1619      H1624   1.084       .  S
C1620      C1625   1.482       .  S
C1620      C1621   1.408       .  A
C1621      C1622   1.403       .  A
C1621      N1626   1.438       .  S
C1622      H1627   1.084       .  S
N1623      H1643   1.046       .  S
N1623      H1644   1.045       .  S
C1625      C1628   1.402       .  A
C1625      C1632   1.406       .  A
N1626      H1641   1.046       .  S
N1626      H1642   1.045       .  S
C1628      C1629   1.407       .  A
C1628      H1633   1.084       .  S
C1629      C1630   1.417       .  A
C1629      N1634   1.438       .  S
C1630      C1631   1.409       .  A
C1631      C1632   1.407       .  A
C1631      H1635   1.083       .  S
C1632      N1636   1.437       .  S
N1634      H1637   1.046   1_545  S
N1634      H1638   1.046       .  S
N1636      H1639   1.045       .  S
N1636      H1640   1.046       .  S
C1645      C1646   1.411   1_565  A
C1645      C1650   1.405       .  A
C1646      C1647   1.408       .  A
C1646      N1651   1.436       .  S
C1647      C1648   1.403   1_545  A
C1647      H1652   1.084       .  S
C1648      C1653   1.484       .  S
C1648      C1649   1.408       .  A
C1649      C1650   1.406       .  A
C1649      N1654   1.437       .  S
C1650      H1655   1.082       .  S
N1651      H1672   1.044       .  S
C1653      C1656   1.402       .  A
C1653      C1660   1.406       .  A
N1654      H1669   1.046       .  S
N1654      H1670   1.046       .  S
C1656      C1657   1.411       .  A
C1656      H1661   1.084       .  S
C1657      C1658   1.420       .  A
C1657      N1662   1.438       .  S
C1658      C1659   1.411       .  A
C1659      C1660   1.405       .  A
C1659      H1663   1.083       .  S
C1660      N1664   1.438       .  S
N1662      H1665   1.046       .  S
N1662      H1666   1.045   1_565  S
N1664      H1667   1.045       .  S
N1664      H1668   1.046       .  S
C1673      C1674   1.406       .  A
C1673      C1678   1.402       .  A
C1674      C1675   1.404       .  A
C1674      N1679   1.432   1_655  S
C1675      C1676   1.405       .  A
C1675      H1680   1.084   1_655  S
C1676      C1681   1.482       .  S
C1676      C1677   1.410       .  A
C1677      C1678   1.403       .  A
C1677      N1682   1.438       .  S
C1678      H1683   1.084       .  S
N1679      H1699   1.046       .  S
N1679      H1700   1.046       .  S
C1681      C1684   1.401       .  A
C1681      C1688   1.409       .  A
N1682      H1697   1.046       .  S
N1682      H1698   1.046       .  S
C1684      C1685   1.406       .  A
C1684      H1689   1.084       .  S
C1685      C1686   1.419       .  A
C1685      N1690   1.438       .  S
C1686      C1687   1.408       .  A
C1687      C1688   1.403       .  A
C1687      H1691   1.083   1_655  S
C1688      N1692   1.439   1_655  S
N1690      H1693   1.046       .  S
N1690      H1694   1.046       .  S
N1692      H1695   1.046       .  S
N1692      H1696   1.046   1_455  S
C1701      C1702   1.418       .  A
C1701      C1706   1.404   1_655  A
C1702      C1703   1.404       .  A
C1702      N1707   1.437       .  S
C1703      C1704   1.403   1_655  A
C1703      H1708   1.084       .  S
C1704      C1709   1.488       .  S
C1704      C1705   1.410       .  A
C1705      C1706   1.408       .  A
C1705      N1710   1.437       .  S
C1706      H1711   1.083       .  S
N1707      H1727   1.043       .  S
N1707      H1728   1.046       .  S
C1709      C1712   1.401       .  A
C1709      C1716   1.409   1_455  A
N1710      H1725   1.045       .  S
N1710      H1726   1.046       .  S
C1712      C1713   1.407       .  A
C1712      H1717   1.084       .  S
C1713      C1714   1.420       .  A
C1713      N1718   1.438       .  S
C1714      C1715   1.408       .  A
C1715      C1716   1.409   1_455  A
C1715      H1719   1.083   1_455  S
C1716      N1720   1.437       .  S
N1718      H1721   1.046       .  S
N1718      H1722   1.046       .  S
N1720      H1723   1.046       .  S
N1720      H1724   1.046       .  S
C1729      C1730   1.410   1_655  A
C1729      C1734   1.401       .  A
C1730      C1731   1.402       .  A
C1730      N1735   1.438       .  S
C1731      C1732   1.402   1_455  A
C1731      H1736   1.084       .  S
C1732      C1737   1.487       .  S
C1732      C1733   1.414       .  A
C1733      C1734   1.409       .  A
C1733      N1738   1.437       .  S
C1734      H1739   1.084       .  S
N1735      H1755   1.046       .  S
N1735      H1756   1.046       .  S
C1737      C1740   1.403       .  A
C1737      C1744   1.411   1_655  A
N1738      H1753   1.046       .  S
N1738      H1754   1.045       .  S
C1740      C1741   1.405       .  A
C1740      H1745   1.084       .  S
C1741      C1742   1.414       .  A
C1741      N1746   1.438       .  S
C1742      C1743   1.406   1_655  A
C1743      C1744   1.408       .  A
C1743      H1747   1.084       .  S
C1744      N1748   1.438       .  S
N1746      H1749   1.045       .  S
N1746      H1750   1.046       .  S
N1748      H1751   1.046       .  S
N1748      H1752   1.046       .  S
C1757      C1758   1.406       .  A
C1757      C1762   1.401       .  A
C1758      C1759   1.404       .  A
C1758      N1763   1.432   1_455  S
C1759      C1760   1.404       .  A
C1759      H1764   1.084   1_455  S
C1760      C1765   1.476       .  S
C1760      C1761   1.414       .  A
C1761      C1762   1.396       .  A
C1761      N1766   1.438       .  S
C1762      H1767   1.084       .  S
N1763      H1783   1.046       .  S
N1763      H1784   1.045       .  S
C1765      C1768   1.403       .  A
C1765      C1772   1.406       .  A
N1766      H1781   1.046       .  S
N1766      H1782   1.044       .  S
C1768      C1769   1.400       .  A
C1768      H1773   1.084       .  S
C1769      C1770   1.408       .  A
C1769      N1774   1.433       .  S
C1770      C1771   1.408       .  A
C1771      C1772   1.406       .  A
C1771      H1775   1.084       .  S
C1772      N1776   1.437       .  S
N1774      H1777   1.046       .  S
N1774      H1778   1.046       .  S
N1776      H1779   1.046       .  S
N1776      H1780   1.045       .  S
C1785      C1786   1.421       .  A
C1785      C1790   1.411       .  A
C1786      C1787   1.410   1_655  A
C1786      N1791   1.438   1_655  S
C1787      C1788   1.400   1_455  A
C1787      H1792   1.084       .  S
C1788      C1793   1.480   1_655  S
C1788      C1789   1.406       .  A
C1789      C1790   1.404       .  A
C1789      N1794   1.439       .  S
C1790      H1795   1.083       .  S
N1791      H1811   1.045       .  S
N1791      H1812   1.046       .  S
C1793      C1796   1.401       .  A
C1793      C1800   1.410   1_455  A
N1794      H1809   1.046       .  S
N1794      H1810   1.045       .  S
C1796      C1797   1.404       .  A
C1796      H1801   1.084       .  S
C1797      C1798   1.412       .  A
C1797      N1802   1.431       .  S
C1798      C1799   1.405   1_455  A
C1799      C1800   1.401       .  A
C1799      H1803   1.082       .  S
C1800      N1804   1.432       .  S
N1802      H1805   1.045       .  S
N1802      H1806   1.046       .  S
N1804      H1807   1.046       .  S
N1804      H1808   1.045       .  S
C1813      C1814   1.412   1_455  A
C1813      C1818   1.400       .  A
C1814      C1815   1.395       .  A
C1814      N1819   1.433       .  S
C1815      C1816   1.402       .  A
C1815      H1820   1.084       .  S
C1816      C1821   1.483       .  S
C1816      C1817   1.419   1_655  A
C1817      C1818   1.403       .  A
C1817      N1822   1.438       .  S
C1818      H1823   1.084       .  S
N1819      H1839   1.044   1_556  S
N1819      H1840   1.045       .  S
C1821      C1824   1.402       .  A
C1821      C1828   1.409   1_655  A
N1822      H1837   1.045       .  S
N1822      H1838   1.044       .  S
C1824      C1825   1.407       .  A
C1824      H1829   1.084       .  S
C1825      C1826   1.413       .  A
C1825      N1830   1.438       .  S
C1826      C1827   1.403   1_655  A
C1827      C1828   1.400       .  A
C1827      H1831   1.084       .  S
C1828      N1832   1.433       .  S
N1830      H1833   1.046       .  S
N1830      H1834   1.045       .  S
N1832      H1835   1.045       .  S
N1832      H1836   1.046       .  S
