geometry optimzed in LAMMPS
_audit_creation_date              2020-12-01 
_audit_creation_method            'lammps2cif' 
_symmetry_space_group_name_H-M    'P1' 
_symmetry_Int_Tables_number       1 
_symmetry_cell_setting            triclinic 
loop_ 
_symmetry_equiv_pos_as_xyz 
  x,y,z 
_cell_length_a                    35.02758986 
_cell_length_b                    34.25751095371573 
_cell_length_c                    69.36503749074869 
_cell_angle_alpha                 90.04296975373698 
_cell_angle_beta                  92.11158951544486 
_cell_angle_gamma                 119.10255173776042 
loop_ 
_atom_site_label 
_atom_site_type_symbol 
_atom_site_fract_x 
_atom_site_fract_y 
_atom_site_fract_z 
_atom_site_charge 
C1          C  0.11163656  0.21588215  0.08998271     0.82200
N2          N  0.07256189  0.21524718  0.08876002    -0.76100
C3          C  0.53864111  0.18346982  0.07780879     0.84600
N4          N  0.54424403  0.15257269  0.06791540    -0.76100
C5          C  0.08340387  0.15343290  0.06882728     0.84700
N6          N  0.11719891  0.18506417  0.07990385    -0.77800
C7          C  0.48066934  0.34008024  0.06466703     0.82200
N8          N  0.45477047  0.34568544  0.07719498    -0.76100
C9          C  0.42910932  0.31192022  0.08880860     0.84600
N10         N  0.42901095  0.27234768  0.08777337    -0.76100
C11         C  0.45505797  0.26658697  0.07536674     0.84700
N12         N  0.48109589  0.30065868  0.06384516    -0.77800
C13         C  0.30163520  0.05639121  0.06204281     0.82200
N14         N  0.29686986  0.52254460  0.07351287    -0.76100
C15         C  0.33057848  0.52703276  0.08528618     0.84600
N16         N  0.36937444  0.06568819  0.08565980    -0.76100
C17         C  0.37454009  0.09977066  0.07399708     0.84700
N18         N  0.34041728  0.09499594  0.06225398    -0.77800
C19         C  0.41638923  0.14230414  0.07450984     0.05100
C20         C  0.45664281  0.14246838  0.07565823    -0.11100
C21         C  0.49629540  0.18307641  0.07637216     0.02600
C22         C  0.49542964  0.22358647  0.07582666    -0.09600
C23         C  0.45554904  0.22385725  0.07480839     0.05100
C24         C  0.41616837  0.18319972  0.07413007    -0.09000
H25         H  0.45709937  0.11107275  0.07608221     0.10700
H26         H  0.52582767  0.25499549  0.07644591     0.08200
H27         H  0.38531278  0.18343590  0.07349974     0.08000
C28         C  0.38879163  0.42246425  0.92488541     0.82200
N29         N  0.39293086  0.45615016  0.91327918    -0.76100
C30         C  0.35877446  0.45096654  0.90157247     0.84600
N31         N  0.32025754  0.41217303  0.90162038    -0.76100
C32         C  0.31577332  0.37812126  0.91306712     0.84700
N33         N  0.35028211  0.38335588  0.92468537    -0.77800
C34         C  0.25805032  0.16420295  0.89819080     0.82200
N35         N  0.23327562  0.13194376  0.91056782    -0.76100
C36         C  0.20854349  0.13901228  0.92318854     0.84600
N37         N  0.20828708  0.17850729  0.92338481    -0.76100
C38         C  0.23335047  0.21121076  0.91109895     0.84700
N39         N  0.25839847  0.20402657  0.89853737    -0.77800
C40         C  0.23342786  0.25425609  0.91142032     0.05100
C41         C  0.27318550  0.29452370  0.91271146    -0.11100
C42         C  0.27365928  0.33573637  0.91264024     0.02600
C43         C  0.23367491  0.33624759  0.91133422    -0.09600
C44         C  0.19356450  0.29609831  0.91003403     0.05100
C45         C  0.19377707  0.25521206  0.91016434    -0.09000
H46         H  0.30376779  0.29373874  0.91353316     0.10700
H47         H  0.23379864  0.36794447  0.91115563     0.08200
H48         H  0.16311038  0.22410309  0.90918581     0.08000
C49         C  0.10850095  0.32871438  0.91796255     0.82200
N50         N  0.07499729  0.29931430  0.90615101    -0.78500
C51         C  0.07956521  0.26861005  0.89553720     0.84600
N52         N  0.11777194  0.26724227  0.89685979    -0.76100
C53         C  0.15163880  0.29694948  0.90859594     0.84700
N54         N  0.14677481  0.32770315  0.91904335    -0.77800
O55         O  0.48153589  0.46015846  0.98150336    -0.78900
O56         O  0.16394261  0.02143417  0.02778687    -0.63600
O57         O  0.07170172  0.00940970  0.99273839    -1.10200
C58         C  0.10774815  0.41926000  0.95542684     1.07900
O59         O  0.20808555  0.01769392  0.00642462    -0.76800
O60         O  0.17945332  0.03515338  0.97223349    -0.64400
Ni61       Ni  0.01689706  0.49667229  0.00335143     1.34900
C62         C  0.15183368  0.03829297  0.96092369     0.86700
O63         O  0.11617005  0.06169160  0.02535631    -0.77400
O64         O  0.04385544  0.03396493  0.02601633    -0.87700
C65         C  0.20058216  0.02606993  0.02325013     0.86300
O66         O  0.51072805  0.44491628  0.01617213    -0.65900
O67         O  0.14645632  0.44760792  0.96103259    -0.85100
C68         C  0.03856490  0.44194924  0.02740457     0.87100
C69         C  0.08275857  0.06161312  0.03178605     1.08600
H70         H  0.10778814  0.44250300  0.00202867     0.40500
O71         O  0.11812838  0.46982658  0.99495485    -1.07800
O72         O  0.11125886  0.00959993  0.95993450    -0.64500
Ni73       Ni  0.07261927  0.46426153  0.97702983     1.26300
O74         O  0.07923851  0.47030310  0.02800771    -0.64700
O75         O  0.07408998  0.41820714  0.96211286    -0.77000
C76         C  0.48935062  0.45322537  0.96446152     0.86500
O77         O  0.02632529  0.45886957  0.95983109    -0.64200
Ni78       Ni  0.17306385  0.48321887  0.98422817     1.27400
Ni79       Ni  0.11739893  0.01536411  0.01062122     1.26100
H80         H  0.08200181  0.03672020  0.98566328     0.41000
C81         C  0.39308578  0.30262308  0.74786151     0.82200
N82         N  0.43161608  0.34146681  0.74864989    -0.76100
C83         C  0.43643352  0.37711577  0.73829707     0.84600
N84         N  0.40231701  0.37356081  0.72698343    -0.76100
C85         C  0.36385024  0.33458887  0.72583062     0.84700
N86         N  0.35907649  0.29912233  0.73641859    -0.77800
C87         C  0.17171324  0.98938999  0.75827061     0.82200
N88         N  0.17768486  0.45992630  0.74737351    -0.76100
C89         C  0.14492999  0.43019779  0.73540817     0.84600
N90         N  0.10601074  0.42991492  0.73418133    -0.76100
C91         C  0.09991665  0.45961695  0.74488154     0.84700
N92         N  0.13299840  0.98957215  0.75697356    -0.77800
C93         C  0.04313524  0.11595408  0.72865215     0.82200
N94         N  0.04239189  0.07601093  0.72911182    -0.76100
C95         C  0.01745838  0.04459038  0.74185420     0.84600
N96         N  0.99348991  0.05355249  0.75435764    -0.76100
C97         C  0.99480050  0.09390626  0.75414112     0.84700
N98         N  0.01953761  0.12495939  0.74123683    -0.77800
C99         C  0.05768251  0.96008628  0.74348680     0.05100
C100        C  0.01814417  0.41962510  0.74141908    -0.11100
C101        C  0.97806379  0.41975884  0.73984842     0.02600
C102        C  0.97781378  0.96102160  0.74045610    -0.09600
C103        C  0.01730836  0.00146241  0.74220307     0.05100
C104        C  0.05706384  0.00077126  0.74370200    -0.09000
H105        H  0.01843610  0.38813258  0.74124675     0.10700
H106        H  0.44712014  0.96153846  0.73929189     0.08200
H107        H  0.08757524  0.03200898  0.74492685     0.08000
O108        O  0.98931292  0.20564595  0.83840818    -0.78900
O109        O  0.31059886  0.08833156  0.79127868    -0.63600
O110        O  0.40004684  0.17198817  0.82633967    -1.10200
C111        C  0.35868389  0.04258832  0.86413852     1.07900
O112        O  0.26372709  0.05751167  0.81447138    -0.76800
O113        O  0.28909422  0.08661634  0.85118952    -0.64400
Ni114      Ni  0.45640872  0.21384193  0.81722783     1.34900
C115        C  0.31662874  0.12145889  0.86049649     0.86700
O116        O  0.36048858  0.17677975  0.79089547    -0.77400
O117        O  0.43074822  0.22941445  0.79548895    -0.87700
C118        C  0.27214364  0.06353629  0.79673223     0.86300
O119        O  0.46413628  0.17212344  0.80186553    -0.65900
O120        O  0.32118078  0.02758090  0.85563936    -0.85100
C121        C  0.43700407  0.13759061  0.79220730     0.87100
C122        C  0.39329709  0.21388521  0.78688905     1.08600
H123        H  0.36338982  0.06886725  0.81994977     0.40500
O124        O  0.35231218  0.08675020  0.82582090    -1.07800
O125        O  0.35776282  0.13848643  0.85933360    -0.64500
Ni126      Ni  0.39634943  0.12714679  0.84395772     1.26300
O127        O  0.39568831  0.12044389  0.79298037    -0.64700
O128        O  0.39139706  0.08049892  0.86081894    -0.77000
C129        C  0.48023187  0.19641412  0.85597282     0.86500
O130        O  0.44197900  0.16925590  0.86099502    -0.64200
Ni131      Ni  0.29564648  0.04565848  0.83482502     1.27400
Ni132      Ni  0.35617606  0.13114250  0.80811265     1.26100
H133        H  0.38857329  0.18949544  0.83222502     0.41000
C134        C  0.24641787  0.16718695  0.58042681     0.82200
N135        N  0.28433202  0.16556277  0.58181156    -0.76100
C136        C  0.28972241  0.13603148  0.57065268     0.84600
N137        N  0.25672371  0.10809120  0.55805371    -0.76100
C138        C  0.21896449  0.11033863  0.55662168     0.84700
N139        N  0.21398401  0.13964580  0.56787312    -0.77800
C140        C  0.02589159  0.25880359  0.58964098     0.82200
N141        N  0.03250411  0.29261001  0.57760013    -0.76100
C142        C  0.99938492  0.28897181  0.56553171     0.84600
N143        N  0.45977288  0.25140815  0.56544216    -0.76100
C144        C  0.45310731  0.21730363  0.57730298     0.84700
N145        N  0.98641728  0.22104696  0.58927272    -0.77800
C146        C  0.40599573  0.00853140  0.56616583     0.82200
N147        N  0.37932333  0.97529372  0.57783230    -0.76100
C148        C  0.34952321  0.98005048  0.58815619     0.84600
N149        N  0.34630268  0.01789585  0.58673622    -0.76100
C150        C  0.37310884  0.05130731  0.57519501     0.84700
N151        N  0.40313731  0.04658429  0.56505065    -0.77800
C152        C  0.33144420  0.13498333  0.57227287     0.05100
C153        C  0.33193681  0.09415754  0.57260914    -0.11100
C154        C  0.37181630  0.09368620  0.57464899     0.02600
C155        C  0.41113026  0.13419936  0.57640153    -0.09600
C156        C  0.41115844  0.17510939  0.57607470     0.05100
C157        C  0.37123928  0.17532029  0.57400679    -0.09000
H158        H  0.30145142  0.06291076  0.57138765     0.10700
H159        H  0.44188388  0.13385990  0.57793857     0.08200
H160        H  0.37115258  0.20691420  0.57373479     0.08000
O161        O  0.10586494  0.19139547  0.67030640    -0.78900
O162        O  0.24104085  0.35392968  0.62297272    -0.63600
O163        O  0.18890206  0.25764713  0.65787175    -1.10200
C164        C  0.18122328  0.36593700  0.69736427     1.07900
O165        O  0.28434110  0.40319432  0.64548981    -0.76800
O166        O  0.28002629  0.37239344  0.68180712    -0.64400
Ni167      Ni  0.14262832  0.20055152  0.64872493     1.34900
C168        C  0.26771499  0.33685386  0.69125684     0.86700
O169        O  0.22897888  0.27148414  0.62257034    -0.77400
O170        O  0.17503892  0.20142545  0.62671781    -0.87700
C171        C  0.27372374  0.39098817  0.62789961     0.86300
O172        O  0.10987701  0.22236975  0.63410693    -0.65900
O173        O  0.21534826  0.39420489  0.68907265    -0.85100
C174        C  0.12191056  0.25785912  0.62466809     0.87100
C175        C  0.20921880  0.22995954  0.61856179     1.08600
H176        H  0.17801411  0.34297901  0.65253809     0.40500
O177        O  0.20088438  0.33774154  0.65800501    -1.07800
O178        O  0.22849963  0.30503797  0.69076305    -0.64500
Ni179      Ni  0.17510291  0.29038445  0.67599445     1.26300
O180        O  0.16100806  0.28994845  0.62514608    -0.64700
O181        O  0.16108684  0.32431770  0.69338631    -0.77000
C182        C  0.11623484  0.20378408  0.68788381     0.86500
O183        O  0.14832752  0.24129388  0.69284729    -0.64200
Ni184      Ni  0.24764826  0.39460732  0.66708980     1.27400
Ni185      Ni  0.21456484  0.30500977  0.63988457     1.26100
H186        H  0.21189811  0.25260704  0.66333901     0.41000
C187        C  0.36463574  0.29896793  0.40010662     0.82200
N188        N  0.39774165  0.32590388  0.41255668    -0.76100
C189        C  0.39276078  0.35334125  0.42499012     0.84600
N190        N  0.35440776  0.35424402  0.42490709    -0.76100
C191        C  0.32077019  0.32695317  0.41248392     0.84700
N192        N  0.32599498  0.29921769  0.40008790    -0.77800
C193        C  0.08469970  0.20732366  0.39586101     0.82200
N194        N  0.12434013  0.24478261  0.39679735    -0.76100
C195        C  0.15706930  0.24721953  0.40876643     0.84600
N196        N  0.14969965  0.21203594  0.42006421    -0.76100
C197        C  0.10985227  0.17467318  0.41939289     0.84700
N198        N  0.07731294  0.17235860  0.40730466    -0.77800
C199        C  0.20658719  0.45616167  0.41988024     0.82200
N200        N  0.23490610  0.49012012  0.40896056    -0.76100
C201        C  0.26560585  0.48562012  0.39925490     0.84600
N202        N  0.26790599  0.44724275  0.40048593    -0.76100
C203        C  0.23940885  0.41313542  0.41128935     0.84700
N204        N  0.20865013  0.41770991  0.42086147    -0.77800
C205        C  0.27913036  0.32797605  0.41216421     0.05100
C206        C  0.23903494  0.28793104  0.41105896    -0.11100
C207        C  0.19938131  0.28887680  0.41022470     0.02600
C208        C  0.20004573  0.33011133  0.41057084    -0.09600
C209        C  0.23977238  0.37028877  0.41162517     0.05100
C210        C  0.27928542  0.36907668  0.41247074    -0.09000
H211        H  0.23870558  0.25613618  0.41070288     0.10700
H212        H  0.16946768  0.33092605  0.40983366     0.08200
H213        H  0.31009268  0.40005037  0.41316119     0.08000
O214        O  0.02895643  0.36850457  0.50698029    -0.78900
O215        O  0.08025683  0.04292953  0.45710452    -0.63600
O216        O  0.07395629  0.45710698  0.49382087    -1.10200
C217        C  0.99289794  0.00397283  0.53003162     1.07900
O218        O  0.07551138  0.09205078  0.47662592    -0.76800
O219        O  0.10441963  0.07161292  0.51031384    -0.64400
Ni220      Ni  0.05824911  0.39845600  0.48401136     1.34900
C221        C  0.10991281  0.04638068  0.52217623     0.86700
O222        O  0.11988309  0.49441220  0.46111583    -0.77400
O223        O  0.08863487  0.42006296  0.46024212    -0.87700
C224        C  0.08247664  0.08035720  0.46032477     0.86300
O225        O  0.00452649  0.39032160  0.47256715    -0.65900
O226        O  0.02198356  0.04201235  0.52459308    -0.85100
C227        C  0.00005510  0.41614275  0.46071754     0.87100
C228        C  0.11711559  0.45843825  0.45478335     1.08600
H229        H  0.00627305  0.49171214  0.48328674     0.40500
O230        O  0.03415191  0.00420787  0.49030904    -1.07800
O231        O  0.08028364  0.00657010  0.52534971    -0.64500
Ni232      Ni  0.03204969  0.46207151  0.50909262     1.26300
O233        O  0.02950475  0.45641678  0.45838356    -0.64700
O234        O  0.98942016  0.46734636  0.52354384    -0.77000
C235        C  0.02499292  0.38112132  0.52367592     0.86500
O236        O  0.03008936  0.41961995  0.52728746    -0.64200
Ni237      Ni  0.04939669  0.06276461  0.50014348     1.27400
Ni238      Ni  0.07686816  0.49948346  0.47520111     1.26100
H239        H  0.10186555  0.46883507  0.50077751     0.41000
C240        C  0.46423542  0.52345983  0.25016281     0.82200
N241        N  0.50412593  0.52572040  0.25097719    -0.76100
C242        C  0.51108900  0.49667774  0.24023540     0.84600
N243        N  0.47794502  0.46554551  0.22875277    -0.76100
C244        C  0.43835767  0.46360211  0.22776100     0.84700
N245        N  0.43137511  0.49231050  0.23859268    -0.77800
C246        C  0.22197999  0.15212157  0.23688953     0.82200
N247        N  0.25441208  0.15384276  0.24881969    -0.76100
C248        C  0.24726891  0.11811328  0.25963154     0.84600
N249        N  0.20788155  0.08032560  0.25821218    -0.76100
C250        C  0.17516504  0.07841273  0.24636217     0.84700
N251        N  0.18236592  0.11447354  0.23568927    -0.77800
C252        C  0.06754341  0.33964078  0.25394627     0.82200
N253        N  0.09359775  0.33284520  0.24194076    -0.76100
C254        C  0.11953040  0.36561526  0.22993879     0.84600
N255        N  0.11972628  0.40537281  0.23010161    -0.76100
C256        C  0.09340162  0.41216095  0.24198710     0.84700
N257        N  0.06720757  0.37909790  0.25383768    -0.77800
C258        C  0.05337418  0.49688012  0.24168649     0.05100
C259        C  0.05384167  0.45609761  0.24120029    -0.11100
C260        C  0.09343315  0.45521216  0.24219746     0.02600
C261        C  0.13293842  0.49551360  0.24376208    -0.09600
C262        C  0.13311102  0.53659599  0.24449372     0.05100
C263        C  0.09318626  0.53713772  0.24339430    -0.09000
H264        H  0.02329668  0.42488164  0.24003550     0.10700
H265        H  0.16358900  0.49485863  0.24456063     0.08200
H266        H  0.09317741  0.06881796  0.24351076     0.08000
O267        O  0.36111121  0.31420107  0.14649569    -0.78900
O268        O  0.22450995  0.34115644  0.19500741    -0.63600
O269        O  0.27969538  0.30230932  0.15895968    -1.10200
C270        C  0.29423851  0.42672132  0.12349980     1.07900
O271        O  0.18576271  0.35528286  0.17283628    -0.76800
O272        O  0.19275067  0.33314339  0.13618128    -0.64400
Ni273      Ni  0.32510856  0.29010793  0.16849835     1.34900
C274        C  0.20569881  0.31155525  0.12592410     0.86700
O275        O  0.23496548  0.26961058  0.19289775    -0.77400
O276        O  0.29426496  0.26125039  0.19126771    -0.87700
C277        C  0.19418431  0.34969833  0.19025654     0.86300
O278        O  0.35790466  0.34607722  0.18184048    -0.65900
O279        O  0.25908207  0.41967510  0.13120383    -0.85100
C280        C  0.34436588  0.36580629  0.19288678     0.87100
C281        C  0.25769180  0.25159944  0.19822490     1.08600
H282        H  0.29181252  0.39808122  0.16792323     0.40500
O283        O  0.26934247  0.37162350  0.16130107    -1.07800
O284        O  0.24485904  0.31859637  0.12649206    -0.64500
Ni285      Ni  0.29676446  0.35305287  0.14278316     1.26300
O286        O  0.30433358  0.35546754  0.19374660    -0.64700
O287        O  0.31399202  0.40472365  0.12734574    -0.77000
C288        C  0.35397814  0.32334100  0.12945810     0.86500
O289        O  0.32474209  0.33373197  0.12513997    -0.64200
Ni290      Ni  0.22468577  0.38533817  0.15224442     1.27400
Ni291      Ni  0.25224029  0.32112124  0.17745494     1.26100
H292        H  0.25746515  0.27564106  0.15236341     0.41000
O293        O  0.33173427  0.05532517  0.34203024    -0.78900
O294        O  0.46279479  0.21277822  0.29000019    -0.63600
O295        O  0.41223836  0.12166735  0.32751725    -1.10200
C296        C  0.40190830  0.23565352  0.36202155     1.07900
O297        O  0.50629226  0.26386905  0.31180580    -0.76800
O298        O  0.50154256  0.24220735  0.34942409    -0.64400
Ni299      Ni  0.36578106  0.06351259  0.31956031     1.34900
C300        C  0.49025976  0.20775298  0.35952330     0.86700
O301        O  0.45157408  0.13043234  0.29217376    -0.77400
O302        O  0.39489817  0.06231839  0.29663415    -0.87700
C303        C  0.49505959  0.25065589  0.29437051     0.86300
O304        O  0.33153130  0.08464217  0.30577104    -0.65900
O305        O  0.43507357  0.26323100  0.35296884    -0.85100
C306        C  0.34335975  0.11748035  0.29461731     0.87100
C307        C  0.42954744  0.08893013  0.28823347     1.08600
H308        H  0.39966450  0.20489024  0.31883562     0.40500
O309        O  0.42299318  0.20113437  0.32484112    -1.07800
O310        O  0.45180072  0.17468438  0.35903018    -0.64500
Ni311      Ni  0.39809305  0.15705156  0.34415448     1.26300
O312        O  0.38289733  0.14802768  0.29334782    -0.64700
O313        O  0.38379738  0.19346314  0.35990061    -0.77000
C314        C  0.34156366  0.07226751  0.35899050     0.86500
O315        O  0.37232484  0.11141075  0.36264989    -0.64200
Ni316      Ni  0.46878254  0.25987553  0.33234170     1.27400
Ni317      Ni  0.43708819  0.16618464  0.30817590     1.26100
H318        H  0.43539356  0.11759785  0.33349982     0.41000
C319        C  0.02028969  0.27938739  0.27929666    -0.11300
C320        C  0.04153186  0.30585001  0.26730939    -0.12900
C321        C  0.14599977  0.35794453  0.21671787    -0.11300
C322        C  0.16787262  0.35281406  0.20497453    -0.12900
C323        C  0.24163077  0.21818127  0.21278067    -0.11300
C324        C  0.23105528  0.18858772  0.22425645    -0.12900
C325        C  0.28176118  0.11968697  0.27212328    -0.11300
C326        C  0.31023792  0.11966138  0.28249080    -0.12900
C327        C  0.37595691  0.40125239  0.20528817    -0.11300
C328        C  0.40370310  0.43024016  0.21563340    -0.12900
C329        C  0.44455052  0.07038657  0.27366830    -0.11300
C330        C  0.45534235  0.55109867  0.26277542    -0.12900
C331        C  0.29350408  0.51983506  0.38648007    -0.11300
C332        C  0.31579420  0.54557196  0.37450339    -0.12900
C333        C  0.17453806  0.46050398  0.43064519    -0.11300
C334        C  0.14772035  0.46084317  0.44097260    -0.12900
C335        C  0.05041483  0.20555567  0.38312367    -0.11300
C336        C  0.02274943  0.20607159  0.37233435    -0.12900
C337        C  0.10112840  0.13926446  0.43265551    -0.11300
C338        C  0.09316685  0.11142114  0.44482693    -0.12900
C339        C  0.38396413  0.25367428  0.37536992    -0.11300
C340        C  0.37204372  0.27215015  0.38649399    -0.12900
C341        C  0.42822678  0.38012186  0.43839115    -0.11300
C342        C  0.46056750  0.39838992  0.44886489    -0.12900
C343        C  0.32301613  0.94635962  0.60145864    -0.11300
C344        C  0.30023956  0.41992227  0.61314616    -0.12900
C345        C  0.96297850  0.00237632  0.54410870    -0.11300
C346        C  0.43707423  0.00369131  0.55477184    -0.12900
C347        C  0.06110556  0.26175812  0.60212978    -0.11300
C348        C  0.08947798  0.26144083  0.61251715    -0.12900
C349        C  0.01453490  0.35007197  0.53916992    -0.11300
C350        C  0.00723383  0.32304352  0.55165835    -0.12900
C351        C  0.23862193  0.19519229  0.59315965    -0.11300
C352        C  0.22675401  0.21361941  0.60430737    -0.12900
C353        C  0.18372882  0.08271558  0.54323264    -0.11300
C354        C  0.15067799  0.06434205  0.53316401    -0.12900
C355        C  0.06861491  0.14841022  0.71469778    -0.11300
C356        C  0.09007762  0.17440126  0.70260183    -0.12900
C357        C  0.45432026  0.11772083  0.77925976    -0.11300
C358        C  0.47141833  0.10477770  0.76794439    -0.12900
C359        C  0.23669780  0.04161478  0.78260110    -0.11300
C360        C  0.20654750  0.01952033  0.77134719    -0.12900
C361        C  0.15315463  0.40185930  0.72296974    -0.11300
C362        C  0.16437574  0.38282217  0.71178104    -0.12900
C363        C  0.38815026  0.26665089  0.76019720    -0.11300
C364        C  0.38831426  0.24051924  0.77190755    -0.12900
C365        C  0.32813123  0.33176367  0.71369670    -0.11300
C366        C  0.29992153  0.33274198  0.70340258    -0.12900
C367        C  0.01496302  0.21774655  0.87057189    -0.11300
C368        C  0.04454864  0.23920275  0.88223875    -0.12900
C369        C  0.10339810  0.36018179  0.92981425    -0.11300
C370        C  0.10273455  0.38692166  0.94094351    -0.12900
C371        C  0.28266621  0.15505064  0.88447930    -0.11300
C372        C  0.29998500  0.14204623  0.87335381    -0.12900
C373        C  0.16776642  0.07515637  0.94803775    -0.11300
C374        C  0.18448221  0.10516163  0.93682618    -0.12900
C375        C  0.36364453  0.98665364  0.88908320    -0.11300
C376        C  0.36375049  0.01413142  0.87810950    -0.12900
C377        C  0.45441221  0.43882004  0.94984598    -0.11300
C378        C  0.42446075  0.42956467  0.93818592    -0.12900
C379        C  0.32345206  0.49193794  0.09844991    -0.11300
C380        C  0.31224754  0.46182510  0.10970790    -0.12900
C381        C  0.23560005  0.04082542  0.03771878    -0.11300
C382        C  0.26598173  0.05007580  0.04904801    -0.12900
C383        C  0.40262985  0.31815672  0.10246976    -0.11300
C384        C  0.38048701  0.32173722  0.11451125    -0.12900
C385        C  0.52273747  0.40546976  0.04054150    -0.11300
C386        C  0.50557708  0.37519809  0.05162387    -0.12900
C387        C  0.14668070  0.24902382  0.10216079    -0.11300
C388        C  0.17428378  0.27735078  0.11286955    -0.12900
C389        C  0.08855686  0.09445994  0.04618397    -0.11300
C390        C  0.08891096  0.12180319  0.05728123    -0.12900
C391        C  0.11154274  0.71605478  0.09002632     0.82200
N392        N  0.07246509  0.71540306  0.08875253    -0.76100
C393        C  0.53861937  0.68363582  0.07776762     0.84600
N394        N  0.54429538  0.65275991  0.06789681    -0.76100
C395        C  0.08345761  0.65363302  0.06886308     0.84700
N396        N  0.11718227  0.68525717  0.07997170    -0.77800
C397        C  0.48031283  0.83997887  0.06476850     0.82200
N398        N  0.45404606  0.84532907  0.07716902    -0.76100
C399        C  0.42818380  0.81138615  0.08866096     0.84600
N400        N  0.42826643  0.77190380  0.08763286    -0.76100
C401        C  0.45468662  0.76641118  0.07535208     0.84700
N402        N  0.48090966  0.80065126  0.06395177    -0.77800
C403        C  0.30168922  0.55624706  0.06187649     0.82200
N404        N  0.29672271  0.02276391  0.07374991    -0.76100
C405        C  0.33037131  0.02727030  0.08557130     0.84600
N406        N  0.36952967  0.56550235  0.08540157    -0.76100
C407        C  0.37459130  0.59964741  0.07380713     0.84700
N408        N  0.34042018  0.59489650  0.06211068    -0.77800
C409        C  0.41636064  0.64223042  0.07436282     0.05100
C410        C  0.45665661  0.64250295  0.07552612    -0.11100
C411        C  0.49624482  0.68316230  0.07630409     0.02600
C412        C  0.49527135  0.72361956  0.07581018    -0.09600
C413        C  0.45533025  0.72376860  0.07477400     0.05100
C414        C  0.41601623  0.68305829  0.07402628    -0.09000
H415        H  0.45719433  0.61114673  0.07591766     0.10700
H416        H  0.52562409  0.75507183  0.07648039     0.08200
H417        H  0.38511436  0.68319872  0.07337752     0.08000
C418        C  0.38883609  0.92209967  0.92478282     0.82200
N419        N  0.39324530  0.95593571  0.91320580    -0.76100
C420        C  0.35925125  0.95100022  0.90144461     0.84600
N421        N  0.32063177  0.91231751  0.90140845    -0.76100
C422        C  0.31586053  0.87811777  0.91281796     0.84700
N423        N  0.35020577  0.88308917  0.92449255    -0.77800
C424        C  0.25707298  0.66396758  0.89771780     0.82200
N425        N  0.23251745  0.63193316  0.91022457    -0.76100
C426        C  0.20805744  0.63925647  0.92290777     0.84600
N427        N  0.20787333  0.67879112  0.92303909    -0.76100
C428        C  0.23272661  0.71126009  0.91061890     0.84700
N429        N  0.25749802  0.70382287  0.89799862    -0.77800
C430        C  0.23303777  0.75440202  0.91091389     0.05100
C431        C  0.27290209  0.79453693  0.91232227    -0.11100
C432        C  0.27361066  0.83586000  0.91227134     0.02600
C433        C  0.23373695  0.83660387  0.91085348    -0.09600
C434        C  0.19352559  0.79656940  0.90943140     0.05100
C435        C  0.19351791  0.75557967  0.90954545    -0.09000
H436        H  0.30338601  0.79356083  0.91322708     0.10700
H437        H  0.23402488  0.86838191  0.91069978     0.08200
H438        H  0.16277817  0.72455390  0.90849443     0.08000
C439        C  0.10851535  0.82914979  0.91752860     0.82200
N440        N  0.07491556  0.79970575  0.90576991    -0.78500
C441        C  0.07947066  0.76909090  0.89508476     0.84600
N442        N  0.11773069  0.76782703  0.89629749    -0.76100
C443        C  0.15168678  0.79758074  0.90797886     0.84700
N444        N  0.14684446  0.82824743  0.91849803    -0.77800
O445        O  0.48135756  0.95940537  0.98152291    -0.78900
O446        O  0.16403758  0.52171199  0.02771774    -0.63600
O447        O  0.07182815  0.50990091  0.99272394    -1.10200
C448        C  0.10768269  0.91873861  0.95550423     1.07900
O449        O  0.20815879  0.51804541  0.00631800    -0.76800
O450        O  0.17949529  0.53586606  0.97220752    -0.64400
Ni451      Ni  0.01674065  0.99626885  0.00330403     1.34900
C452        C  0.15186036  0.53894488  0.96088470     0.86700
O453        O  0.11631319  0.56203348  0.02535980    -0.77400
O454        O  0.04399743  0.53404610  0.02615113    -0.87700
C455        C  0.20064670  0.52630403  0.02316191     0.86300
O456        O  0.51058891  0.94472050  0.01630012    -0.65900
O457        O  0.14638362  0.94682723  0.96123273    -0.85100
C458        C  0.03844324  0.94179546  0.02753597     0.87100
C459        C  0.08290237  0.56181602  0.03186421     1.08600
H460        H  0.10762225  0.94205871  0.00214313     0.40500
O461        O  0.11800670  0.96935442  0.99504536    -1.07800
O462        O  0.11131664  0.51014489  0.95987497    -0.64500
Ni463      Ni  0.07251579  0.96374618  0.97707831     1.26300
O464        O  0.07913919  0.97003877  0.02808005    -0.64700
O465        O  0.07401688  0.91772051  0.96216008    -0.77000
C466        C  0.48920202  0.95255411  0.96447215     0.86500
O467        O  0.02623212  0.95833089  0.95984853    -0.64200
Ni468      Ni  0.17297271  0.98262570  0.98437887     1.27400
Ni469      Ni  0.11751605  0.51575210  0.01058041     1.26100
H470        H  0.08211198  0.53723554  0.98566834     0.41000
C471        C  0.39296983  0.80273860  0.74803527     0.82200
N472        N  0.43145820  0.84162365  0.74886850    -0.76100
C473        C  0.43620358  0.87735876  0.73860422     0.84600
N474        N  0.40204630  0.87384415  0.72732936    -0.76100
C475        C  0.36361172  0.83483270  0.72613163     0.84700
N476        N  0.35892240  0.79927550  0.73663005    -0.77800
C477        C  0.17183637  0.48945162  0.75813757     0.82200
N478        N  0.17746746  0.95985775  0.74745615    -0.76100
C479        C  0.14466828  0.93021997  0.73547239     0.84600
N480        N  0.10578302  0.93003185  0.73428468    -0.76100
C481        C  0.09976470  0.95973266  0.74503066     0.84700
N482        N  0.13309327  0.48954635  0.75681357    -0.77800
C483        C  0.04320523  0.61572093  0.72843961     0.82200
N484        N  0.04249696  0.57579281  0.72887110    -0.76100
C485        C  0.01757233  0.54432728  0.74160018     0.84600
N486        N  0.99359289  0.55322335  0.75411783    -0.76100
C487        C  0.99487189  0.59355554  0.75393072     0.84700
N488        N  0.01959041  0.62466055  0.74104039    -0.77800
C489        C  0.05783980  0.45990973  0.74328537     0.05100
C490        C  0.01794446  0.91982304  0.74166356    -0.11100
C491        C  0.97786622  0.91999153  0.74015112     0.02600
C492        C  0.97797084  0.46076940  0.74013276    -0.09600
C493        C  0.01744039  0.50122314  0.74192819     0.05100
C494        C  0.05719593  0.50057240  0.74349087    -0.09000
H495        H  0.01820394  0.88831505  0.74147406     0.10700
H496        H  0.44726795  0.46126046  0.73892991     0.08200
H497        H  0.08768751  0.53182467  0.74475857     0.08000
O498        O  0.98887144  0.70414661  0.83820100    -0.78900
O499        O  0.31062500  0.58780535  0.79111530    -0.63600
O500        O  0.39992614  0.67154422  0.82611964    -1.10200
C501        C  0.35804432  0.54229149  0.86414100     1.07900
O502        O  0.26370124  0.55754290  0.81432512    -0.76800
O503        O  0.28860487  0.58588855  0.85111700    -0.64400
Ni504      Ni  0.45638412  0.71321567  0.81710538     1.34900
C505        C  0.31595562  0.62111524  0.86024465     0.86700
O506        O  0.36079327  0.67622764  0.79057818    -0.77400
O507        O  0.43084544  0.72930024  0.79548637    -0.87700
C508        C  0.27213043  0.56335590  0.79658483     0.86300
O509        O  0.46402461  0.67173920  0.80153229    -0.65900
O510        O  0.32075856  0.52693151  0.85539803    -0.85100
C511        C  0.43691148  0.63698198  0.79200459     0.87100
C512        C  0.39350173  0.71359686  0.78675397     1.08600
H513        H  0.36330297  0.56850799  0.81999708     0.40500
O514        O  0.35209534  0.58638906  0.82575924    -1.07800
O515        O  0.35711132  0.63856793  0.85900822    -0.64500
Ni516      Ni  0.39590267  0.62693692  0.84392714     1.26300
O517        O  0.39560933  0.61959459  0.79290791    -0.64700
O518        O  0.39059936  0.58047841  0.86101600    -0.77000
C519        C  0.47978357  0.69593971  0.85582448     0.86500
O520        O  0.44143339  0.66932403  0.86092837    -0.64200
Ni521      Ni  0.29535031  0.54524622  0.83463705     1.27400
Ni522      Ni  0.35617639  0.63064646  0.80791382     1.26100
H523        H  0.38846022  0.68919053  0.83188079     0.41000
C524        C  0.24669255  0.66729481  0.58048555     0.82200
N525        N  0.28462348  0.66569499  0.58181266    -0.76100
C526        C  0.28992249  0.63608470  0.57066768     0.84600
N527        N  0.25680085  0.60803452  0.55813635    -0.76100
C528        C  0.21901153  0.61024946  0.55675785     0.84700
N529        N  0.21413886  0.63964415  0.56800032    -0.77800
C530        C  0.02626710  0.75894057  0.58939626     0.82200
N531        N  0.03261416  0.79288872  0.57749618    -0.76100
C532        C  0.99932383  0.78928445  0.56555889     0.84600
N533        N  0.45979206  0.75161695  0.56546071    -0.76100
C534        C  0.45337544  0.71736021  0.57718069     0.84700
N535        N  0.98686736  0.72107639  0.58902160    -0.77800
C536        C  0.40570085  0.50814805  0.56605592     0.82200
N537        N  0.37874860  0.47483232  0.57762490    -0.76100
C538        C  0.34899548  0.47969726  0.58793988     0.84600
N539        N  0.34609228  0.51773014  0.58660385    -0.76100
C540        C  0.37317254  0.55122859  0.57516511     0.84700
N541        N  0.40315787  0.54639358  0.56503073    -0.77800
C542        C  0.33166131  0.63503202  0.57225339     0.05100
C543        C  0.33213370  0.59420162  0.57262061    -0.11100
C544        C  0.37199874  0.59368604  0.57463198     0.02600
C545        C  0.41134770  0.63419363  0.57633979    -0.09600
C546        C  0.41141170  0.67513362  0.57598904     0.05100
C547        C  0.37148425  0.67535653  0.57394192    -0.09000
H548        H  0.30162855  0.56296922  0.57143709     0.10700
H549        H  0.44208772  0.63382325  0.57785621     0.08200
H550        H  0.37140931  0.70695548  0.57365382     0.08000
O551        O  0.10575134  0.69171297  0.67010944    -0.78900
O552        O  0.24157468  0.85430080  0.62307398    -0.63600
O553        O  0.18896437  0.75782034  0.65783047    -1.10200
C554        C  0.18095898  0.86600906  0.69734221     1.07900
O555        O  0.28466659  0.90335102  0.64570363    -0.76800
O556        O  0.27988515  0.87266562  0.68206292    -0.64400
Ni557      Ni  0.14272667  0.70079480  0.64861491     1.34900
C558        C  0.26758091  0.83700175  0.69142012     0.86700
O559        O  0.22935270  0.77176921  0.62260697    -0.77400
O560        O  0.17538276  0.70168196  0.62670013    -0.87700
C561        C  0.27425464  0.89128734  0.62808908     0.86300
O562        O  0.11020406  0.72268102  0.63387182    -0.65900
O563        O  0.21500978  0.89436652  0.68903181    -0.85100
C564        C  0.12235605  0.75821529  0.62445464     0.87100
C565        C  0.20961825  0.73024210  0.61858389     1.08600
H566        H  0.17815840  0.84314581  0.65251980     0.40500
O567        O  0.20101063  0.83792157  0.65801939    -1.07800
O568        O  0.22843410  0.80503604  0.69077293    -0.64500
Ni569      Ni  0.17510633  0.79048937  0.67596724     1.26300
O570        O  0.16144374  0.79034130  0.62504843    -0.64700
O571        O  0.16102368  0.82436195  0.69339628    -0.77000
C572        C  0.11611972  0.70383762  0.68771491     0.86500
O573        O  0.14822571  0.74128040  0.69274960    -0.64200
Ni574      Ni  0.24765049  0.89479042  0.66717347     1.27400
Ni575      Ni  0.21483773  0.80526539  0.63990630     1.26100
H576        H  0.21189768  0.75270960  0.66332036     0.41000
C577        C  0.36429645  0.79871093  0.40053667     0.82200
N578        N  0.39751964  0.82564341  0.41293184    -0.76100
C579        C  0.39275400  0.85325096  0.42534414     0.84600
N580        N  0.35449717  0.85434204  0.42529980    -0.76100
C581        C  0.32073789  0.82705757  0.41293013     0.84700
N582        N  0.32574797  0.79914702  0.40054946    -0.77800
C583        C  0.08491441  0.70759933  0.39612407     0.82200
N584        N  0.12446088  0.74516736  0.39717884    -0.76100
C585        C  0.15715559  0.74757737  0.40916126     0.84600
N586        N  0.14984868  0.71224693  0.42034718    -0.76100
C587        C  0.11009292  0.67477173  0.41955898     0.84700
N588        N  0.07758402  0.67248452  0.40745857    -0.77800
C589        C  0.20682942  0.95666188  0.41998249     0.82200
N590        N  0.23515437  0.99054347  0.40902609    -0.76100
C591        C  0.26583440  0.98594764  0.39934083     0.84600
N592        N  0.26810443  0.94755547  0.40063614    -0.76100
C593        C  0.23959866  0.91353264  0.41147596     0.84700
N594        N  0.20887034  0.91820821  0.42102109    -0.77800
C595        C  0.27918410  0.82824274  0.41264239     0.05100
C596        C  0.23906507  0.78824319  0.41159813    -0.11100
C597        C  0.19945027  0.78924286  0.41066815     0.02600
C598        C  0.20016914  0.83050858  0.41088916    -0.09600
C599        C  0.23992902  0.87066578  0.41191014     0.05100
C600        C  0.27941681  0.86939050  0.41283689    -0.09000
H601        H  0.23869221  0.75642341  0.41131991     0.10700
H602        H  0.16961321  0.83136326  0.41007193     0.08200
H603        H  0.31025120  0.90033488  0.41348529     0.08000
O604        O  0.02901276  0.86900715  0.50719333    -0.78900
O605        O  0.08014758  0.54262687  0.45705248    -0.63600
O606        O  0.07407367  0.95757780  0.49397955    -1.10200
C607        C  0.99271751  0.50348466  0.52998431     1.07900
O608        O  0.07594202  0.59188040  0.47668609    -0.76800
O609        O  0.10429541  0.57136904  0.51050235    -0.64400
Ni610      Ni  0.05865370  0.89892360  0.48428523     1.34900
C611        C  0.10986925  0.54604211  0.52228209     0.86700
O612        O  0.12007159  0.99483185  0.46125837    -0.77400
O613        O  0.08937479  0.92050752  0.46059613    -0.87700
C614        C  0.08267823  0.58016310  0.46034187     0.86300
O615        O  0.00502079  0.89054141  0.47265477    -0.65900
O616        O  0.02152588  0.54157777  0.52446455    -0.85100
C617        C  0.00041429  0.91631296  0.46082584     0.87100
C618        C  0.11755479  0.95890109  0.45501977     1.08600
H619        H  0.00628847  0.99204081  0.48328409     0.40500
O620        O  0.03416516  0.50387664  0.49028660    -1.07800
O621        O  0.08042511  0.50604527  0.52528735    -0.64500
Ni622      Ni  0.03200972  0.96249373  0.50915313     1.26300
O623        O  0.02970795  0.95665315  0.45849906    -0.64700
O624        O  0.98928435  0.96778072  0.52349749    -0.77000
C625        C  0.02488632  0.88165111  0.52385309     0.86500
O626        O  0.02999857  0.92016682  0.52741991    -0.64200
Ni627      Ni  0.04938528  0.56244018  0.50011808     1.27400
Ni628      Ni  0.07697665  0.99985344  0.47529949     1.26100
H629        H  0.10195594  0.96941520  0.50096760     0.41000
C630        C  0.46408623  0.02359698  0.24961780     0.82200
N631        N  0.50399215  0.02588243  0.25045598    -0.76100
C632        C  0.51102069  0.99687638  0.23971725     0.84600
N633        N  0.47790102  0.96573350  0.22821916    -0.76100
C634        C  0.43829529  0.96376686  0.22720410     0.84700
N635        N  0.43126754  0.99244428  0.23803417    -0.77800
C636        C  0.22178570  0.65232168  0.23704606     0.82200
N637        N  0.25428051  0.65408412  0.24894229    -0.76100
C638        C  0.24723438  0.61832989  0.25971103     0.84600
N639        N  0.20791494  0.58049916  0.25828815    -0.76100
C640        C  0.17514905  0.57853988  0.24647399     0.84700
N641        N  0.18221934  0.61461035  0.23583605    -0.77800
C642        C  0.06725279  0.83979733  0.25422723     0.82200
N643        N  0.09323636  0.83272934  0.24228024    -0.76100
C644        C  0.11908401  0.86522250  0.23015062     0.84600
N645        N  0.11926958  0.90497500  0.23013008    -0.76100
C646        C  0.09301564  0.91203005  0.24195289     0.84700
N647        N  0.06690396  0.87924527  0.25393163    -0.77800
C648        C  0.05328074  0.99698841  0.24126676     0.05100
C649        C  0.05364385  0.95614904  0.24083324    -0.11100
C650        C  0.09316767  0.95513914  0.24201529     0.02600
C651        C  0.13272856  0.99536853  0.24368333    -0.09600
C652        C  0.13303632  0.03652036  0.24434947     0.05100
C653        C  0.09315916  0.03718380  0.24308724    -0.09000
H654        H  0.02306671  0.92497651  0.23960007     0.10700
H655        H  0.16331733  0.99459859  0.24461294     0.08200
H656        H  0.09311658  0.56872658  0.24385839     0.08000
O657        O  0.35944206  0.81211204  0.14619174    -0.78900
O658        O  0.22392315  0.84047555  0.19514007    -0.63600
O659        O  0.27897021  0.80192849  0.15889266    -1.10200
C660        C  0.29390035  0.92684771  0.12377443     1.07900
O661        O  0.18542189  0.85533859  0.17311409    -0.76800
O662        O  0.19224298  0.83280001  0.13649859    -0.64400
Ni663      Ni  0.32426585  0.78961799  0.16851045     1.34900
C664        C  0.20536434  0.81164338  0.12606582     0.86700
O665        O  0.23398754  0.76877538  0.19268123    -0.77400
O666        O  0.29426066  0.76211672  0.19165122    -0.87700
C667        C  0.19371318  0.84925985  0.19048389     0.86300
O668        O  0.35741440  0.84631066  0.18123484    -0.65900
O669        O  0.25846102  0.91935239  0.13133360    -0.85100
C670        C  0.34394430  0.86562707  0.19255385     0.87100
C671        C  0.25723818  0.75161208  0.19832886     1.08600
H672        H  0.29127658  0.89777478  0.16821088     0.40500
O673        O  0.26887558  0.87141859  0.16150229    -1.07800
O674        O  0.24465591  0.81909264  0.12648703    -0.64500
Ni675      Ni  0.29640827  0.85312644  0.14293007     1.26300
O676        O  0.30378915  0.85459617  0.19380412    -0.64700
O677        O  0.31392788  0.90517586  0.12772799    -0.77000
C678        C  0.35294161  0.82255570  0.12930748     0.86500
O679        O  0.32452229  0.83420289  0.12518377    -0.64200
Ni680      Ni  0.22422601  0.88516195  0.15245345     1.27400
Ni681      Ni  0.25157279  0.82061405  0.17746496     1.26100
H682        H  0.25676768  0.77539154  0.15220675     0.41000
O683        O  0.33074078  0.55655842  0.34195918    -0.78900
O684        O  0.46243261  0.71335382  0.29033354    -0.63600
O685        O  0.41203869  0.62189513  0.32768770    -1.10200
C686        C  0.40177512  0.73557603  0.36248773     1.07900
O687        O  0.50613099  0.76399778  0.31225106    -0.76800
O688        O  0.50136071  0.74266642  0.34993643    -0.64400
Ni689      Ni  0.36560338  0.56366276  0.31988687     1.34900
C690        C  0.49037259  0.70798487  0.35984823     0.86700
O691        O  0.45071287  0.63069762  0.29213959    -0.77400
O692        O  0.39569706  0.56193136  0.29742608    -0.87700
C693        C  0.49482944  0.75109617  0.29478156     0.86300
O694        O  0.33162619  0.58403224  0.30535201    -0.65900
O695        O  0.43460616  0.76333305  0.35329870    -0.85100
C696        C  0.34325970  0.61750316  0.29459509     0.87100
C697        C  0.42959863  0.58890851  0.28865280     1.08600
H698        H  0.39943801  0.70509230  0.31938813     0.40500
O699        O  0.42287895  0.70135053  0.32527435    -1.07800
O700        O  0.45210613  0.67460365  0.35921602    -0.64500
Ni701      Ni  0.39822032  0.65711219  0.34453393     1.26300
O702        O  0.38254001  0.64880780  0.29374984    -0.64700
O703        O  0.38415473  0.69338251  0.36050558    -0.77000
C704        C  0.34124826  0.57252152  0.35906862     0.86500
O705        O  0.37271114  0.61116802  0.36291390    -0.64200
Ni706      Ni  0.46855417  0.76009517  0.33274942     1.27400
Ni707      Ni  0.43672993  0.66652181  0.30840131     1.26100
H708        H  0.43529532  0.61783159  0.33355791     0.41000
C709        C  0.02012059  0.77995646  0.27975078    -0.11300
C710        C  0.04132505  0.80630388  0.26771849    -0.12900
C711        C  0.14551090  0.85730085  0.21699469    -0.11300
C712        C  0.16740161  0.85217711  0.20525647    -0.12900
C713        C  0.24133139  0.71832107  0.21293259    -0.11300
C714        C  0.23079090  0.68877417  0.22442471    -0.12900
C715        C  0.28175034  0.61986382  0.27214059    -0.11300
C716        C  0.31017073  0.61968555  0.28247581    -0.12900
C717        C  0.37571557  0.90124067  0.20484157    -0.11300
C718        C  0.40360237  0.93031856  0.21511013    -0.12900
C719        C  0.44482051  0.57042902  0.27415867    -0.11300
C720        C  0.45509320  0.05113201  0.26225268    -0.12900
C721        C  0.29379523  0.02008797  0.38653851    -0.11300
C722        C  0.31614882  0.04565724  0.37452018    -0.12900
C723        C  0.17486760  0.96110074  0.43077710    -0.11300
C724        C  0.14811701  0.96139025  0.44116522    -0.12900
C725        C  0.05066149  0.70586732  0.38338036    -0.11300
C726        C  0.02297885  0.70639017  0.37260740    -0.12900
C727        C  0.10140038  0.63922663  0.43273847    -0.11300
C728        C  0.09344218  0.61131305  0.44487562    -0.12900
C729        C  0.38360170  0.75338614  0.37582105    -0.11300
C730        C  0.37155692  0.77178799  0.38692407    -0.12900
C731        C  0.42839235  0.88009885  0.43864422    -0.11300
C732        C  0.46086776  0.89844677  0.44902507    -0.12900
C733        C  0.32228464  0.44595729  0.60118731    -0.11300
C734        C  0.30096918  0.92030544  0.61340812    -0.12900
C735        C  0.96267417  0.50179338  0.54403389    -0.11300
C736        C  0.43674553  0.50318011  0.55467034    -0.12900
C737        C  0.06162583  0.76198626  0.60181167    -0.11300
C738        C  0.09004614  0.76179109  0.61220943    -0.12900
C739        C  0.01425876  0.85061395  0.53935312    -0.11300
C740        C  0.00695027  0.82349609  0.55179723    -0.12900
C741        C  0.23902386  0.69541408  0.59320922    -0.11300
C742        C  0.22721901  0.71391480  0.60435097    -0.12900
C743        C  0.18364945  0.58253628  0.54341594    -0.11300
C744        C  0.15058403  0.56408564  0.53334398    -0.12900
C745        C  0.06859464  0.64820168  0.71447573    -0.11300
C746        C  0.08996907  0.67426595  0.70238393    -0.12900
C747        C  0.45424317  0.61714397  0.77905452    -0.11300
C748        C  0.47141709  0.60431013  0.76773390    -0.12900
C749        C  0.23669008  0.54161009  0.78247246    -0.11300
C750        C  0.20657191  0.51960253  0.77121171    -0.12900
C751        C  0.15281261  0.90187123  0.72297588    -0.11300
C752        C  0.16400174  0.88283014  0.71175925    -0.12900
C753        C  0.38817390  0.76661936  0.76024148    -0.11300
C754        C  0.38847334  0.74036769  0.77185094    -0.12900
C755        C  0.32789803  0.83199050  0.71397809    -0.11300
C756        C  0.29972089  0.83292316  0.70363768    -0.12900
C757        C  0.01457511  0.71768553  0.87035621    -0.11300
C758        C  0.04428116  0.73946349  0.88191709    -0.12900
C759        C  0.10335675  0.86030396  0.92956011    -0.11300
C760        C  0.10267863  0.88671452  0.94087215    -0.12900
C761        C  0.28160833  0.65466733  0.88402591    -0.11300
C762        C  0.29905866  0.64166781  0.87297532    -0.12900
C763        C  0.16773059  0.57579163  0.94798221    -0.11300
C764        C  0.18427425  0.60566234  0.93669261    -0.12900
C765        C  0.36294102  0.48647487  0.88917104    -0.11300
C766        C  0.36304988  0.51390796  0.87816991    -0.12900
C767        C  0.45425458  0.93812610  0.94984004    -0.11300
C768        C  0.42435799  0.92895952  0.93814774    -0.12900
C769        C  0.32315324  0.99220317  0.09877459    -0.11300
C770        C  0.31190123  0.96206010  0.11002399    -0.12900
C771        C  0.23562244  0.54087621  0.03762891    -0.11300
C772        C  0.26599458  0.54999802  0.04893806    -0.12900
C773        C  0.40142470  0.81739808  0.10223848    -0.11300
C774        C  0.37923937  0.82090051  0.11427823    -0.12900
C775        C  0.52261123  0.90545721  0.04073268    -0.11300
C776        C  0.50537846  0.87521485  0.05181491    -0.12900
C777        C  0.14649809  0.74917971  0.10223952    -0.11300
C778        C  0.17402353  0.77748945  0.11297673    -0.12900
C779        C  0.08869789  0.59464076  0.04627179    -0.11300
C780        C  0.08902938  0.62199835  0.05735268    -0.12900
C781        C  0.61163653  0.21588218  0.08998272     0.82200
N782        N  0.57256185  0.21524721  0.08876001    -0.76100
C783        C  0.03864111  0.18346978  0.07780882     0.84600
N784        N  0.04424400  0.15257263  0.06791543    -0.76100
C785        C  0.58340390  0.15343297  0.06882728     0.84700
N786        N  0.61719891  0.18506422  0.07990386    -0.77800
C787        C  0.98066936  0.34008021  0.06466710     0.82200
N788        N  0.95477039  0.34568539  0.07719501    -0.76100
C789        C  0.92910919  0.31192016  0.08880861     0.84600
N790        N  0.92901086  0.27234764  0.08777340    -0.76100
C791        C  0.95505797  0.26658695  0.07536682     0.84700
N792        N  0.98109594  0.30065867  0.06384525    -0.77800
C793        C  0.80163523  0.05639121  0.06204277     0.82200
N794        N  0.79686983  0.52254467  0.07351283    -0.76100
C795        C  0.83057839  0.52703279  0.08528618     0.84600
N796        N  0.86937440  0.06568813  0.08565980    -0.76100
C797        C  0.87454010  0.09977063  0.07399709     0.84700
N798        N  0.84041732  0.09499595  0.06225397    -0.77800
C799        C  0.91638923  0.14230411  0.07450988     0.05100
C800        C  0.95664281  0.14246835  0.07565827    -0.11100
C801        C  0.99629540  0.18307638  0.07637222     0.02600
C802        C  0.99542965  0.22358644  0.07582674    -0.09600
C803        C  0.95554905  0.22385722  0.07480848     0.05100
C804        C  0.91616837  0.18319969  0.07413015    -0.09000
H805        H  0.95709936  0.11107272  0.07608222     0.10700
H806        H  0.02582768  0.25499546  0.07644601     0.08200
H807        H  0.88531279  0.18343587  0.07349981     0.08000
C808        C  0.88879164  0.42246427  0.92488541     0.82200
N809        N  0.89293091  0.45615020  0.91327919    -0.76100
C810        C  0.85877452  0.45096662  0.90157248     0.84600
N811        N  0.82025758  0.41217313  0.90162038    -0.76100
C812        C  0.81577332  0.37812135  0.91306712     0.84700
N813        N  0.85028210  0.38335592  0.92468536    -0.77800
C814        C  0.75805024  0.16420299  0.89819076     0.82200
N815        N  0.73327555  0.13194382  0.91056780    -0.76100
C816        C  0.70854343  0.13901237  0.92318852     0.84600
N817        N  0.70828704  0.17850739  0.92338478    -0.76100
C818        C  0.73335044  0.21121085  0.91109891     0.84700
N819        N  0.75839841  0.20402662  0.89853734    -0.77800
C820        C  0.73342784  0.25425618  0.91142028     0.05100
C821        C  0.77318549  0.29452378  0.91271143    -0.11100
C822        C  0.77365927  0.33573646  0.91264022     0.02600
C823        C  0.73367491  0.33624769  0.91133420    -0.09600
C824        C  0.69356450  0.29609840  0.91003400     0.05100
C825        C  0.69377706  0.25521216  0.91016429    -0.09000
H826        H  0.80376777  0.29373882  0.91353314     0.10700
H827        H  0.73379864  0.36794457  0.91115562     0.08200
H828        H  0.66311036  0.22410319  0.90918576     0.08000
C829        C  0.60850088  0.32871435  0.91796257     0.82200
N830        N  0.57499722  0.29931426  0.90615104    -0.78500
C831        C  0.57956517  0.26861006  0.89553721     0.84600
N832        N  0.61777193  0.26724233  0.89685978    -0.76100
C833        C  0.65163879  0.29694956  0.90859592     0.84700
N834        N  0.64677477  0.32770319  0.91904335    -0.77800
O835        O  0.98153580  0.46015808  0.98150339    -0.78900
O836        O  0.66394269  0.02143438  0.02778684    -0.63600
O837        O  0.57170171  0.00940976  0.99273838    -1.10200
C838        C  0.60774811  0.41925996  0.95542686     1.07900
O839        O  0.70808557  0.01769394  0.00642460    -0.76800
O840        O  0.67945327  0.03515363  0.97223353    -0.64400
Ni841      Ni  0.51689718  0.49667247  0.00335143     1.34900
C842        C  0.65183363  0.03829313  0.96092371     0.86700
O843        O  0.61617007  0.06169173  0.02535627    -0.77400
O844        O  0.54385545  0.03396496  0.02601633    -0.87700
C845        C  0.70058221  0.02607004  0.02325010     0.86300
O846        O  0.01072800  0.44491621  0.01617222    -0.65900
O847        O  0.64645629  0.44760788  0.96103260    -0.85100
C848        C  0.53856492  0.44194930  0.02740451     0.87100
C849        C  0.58275859  0.06161321  0.03178603     1.08600
H850        H  0.60778821  0.44250309  0.00202866     0.40500
O851        O  0.61812843  0.46982666  0.99495483    -1.07800
O852        O  0.61125884  0.00959999  0.95993447    -0.64500
Ni853      Ni  0.57261929  0.46426158  0.97702982     1.26300
O854        O  0.57923853  0.47030319  0.02800768    -0.64700
O855        O  0.57408995  0.41820713  0.96211288    -0.77000
C856        C  0.98935058  0.45322522  0.96446153     0.86500
O857        O  0.52632527  0.45886955  0.95983109    -0.64200
Ni858      Ni  0.67306388  0.48321896  0.98422815     1.27400
Ni859      Ni  0.61739897  0.01536423  0.01062119     1.26100
H860        H  0.58200177  0.03672024  0.98566325     0.41000
C861        C  0.89308578  0.30262312  0.74786150     0.82200
N862        N  0.93161609  0.34146683  0.74864988    -0.76100
C863        C  0.93643355  0.37711579  0.73829705     0.84600
N864        N  0.90231704  0.37356086  0.72698342    -0.76100
C865        C  0.86385025  0.33458893  0.72583062     0.84700
N866        N  0.85907648  0.29912239  0.73641859    -0.77800
C867        C  0.67171325  0.98939005  0.75827056     0.82200
N868        N  0.67768484  0.45992631  0.74737347    -0.76100
C869        C  0.64492996  0.43019781  0.73540812     0.84600
N870        N  0.60601072  0.42991495  0.73418130    -0.76100
C871        C  0.59991663  0.45961697  0.74488152     0.84700
N872        N  0.63299839  0.98957220  0.75697353    -0.77800
C873        C  0.54313526  0.11595408  0.72865215     0.82200
N874        N  0.54239186  0.07601092  0.72911181    -0.76100
C875        C  0.51745832  0.04459035  0.74185418     0.84600
N876        N  0.49348986  0.05355247  0.75435762    -0.76100
C877        C  0.49480049  0.09390626  0.75414111     0.84700
N878        N  0.51953764  0.12495940  0.74123683    -0.77800
C879        C  0.55768245  0.96008627  0.74348681     0.05100
C880        C  0.51814415  0.41962510  0.74141909    -0.11100
C881        C  0.47806376  0.41975883  0.73984843     0.02600
C882        C  0.47781371  0.96102157  0.74045612    -0.09600
C883        C  0.51730829  0.00146239  0.74220306     0.05100
C884        C  0.55706377  0.00077125  0.74370198    -0.09000
H885        H  0.51843609  0.38813258  0.74124678     0.10700
H886        H  0.94712022  0.96153849  0.73929188     0.08200
H887        H  0.58757518  0.03200897  0.74492680     0.08000
O888        O  0.48931293  0.20564598  0.83840819    -0.78900
O889        O  0.81059888  0.08833158  0.79127866    -0.63600
O890        O  0.90004683  0.17198821  0.82633967    -1.10200
C891        C  0.85868389  0.04258841  0.86413854     1.07900
O892        O  0.76372706  0.05751160  0.81447134    -0.76800
O893        O  0.78909419  0.08661643  0.85118947    -0.64400
Ni894      Ni  0.95640871  0.21384198  0.81722783     1.34900
C895        C  0.81662870  0.12145895  0.86049647     0.86700
O896        O  0.86048861  0.17677976  0.79089545    -0.77400
O897        O  0.93074821  0.22941456  0.79548898    -0.87700
C898        C  0.77214364  0.06353629  0.79673219     0.86300
O899        O  0.96413629  0.17212354  0.80186550    -0.65900
O900        O  0.82118077  0.02758102  0.85563939    -0.85100
C901        C  0.93700409  0.13759067  0.79220729     0.87100
C902        C  0.89329709  0.21388528  0.78688905     1.08600
H903        H  0.86338982  0.06886728  0.81994977     0.40500
O904        O  0.85231217  0.08675024  0.82582090    -1.07800
O905        O  0.85776278  0.13848646  0.85933360    -0.64500
Ni906      Ni  0.89634942  0.12714684  0.84395772     1.26300
O907        O  0.89568833  0.12044390  0.79298038    -0.64700
O908        O  0.89139707  0.08049898  0.86081894    -0.77000
C909        C  0.98023188  0.19641415  0.85597281     0.86500
O910        O  0.94197899  0.16925597  0.86099502    -0.64200
Ni911      Ni  0.79564647  0.04565852  0.83482502     1.27400
Ni912      Ni  0.85617606  0.13114252  0.80811264     1.26100
H913        H  0.88857326  0.18949547  0.83222501     0.41000
C914        C  0.74641781  0.16718695  0.58042676     0.82200
N915        N  0.78433195  0.16556276  0.58181152    -0.76100
C916        C  0.78972238  0.13603150  0.57065265     0.84600
N917        N  0.75672372  0.10809125  0.55805365    -0.76100
C918        C  0.71896450  0.11033868  0.55662161     0.84700
N919        N  0.71398399  0.13964583  0.56787305    -0.77800
C920        C  0.52589161  0.25880348  0.58964095     0.82200
N921        N  0.53250414  0.29260994  0.57760012    -0.76100
C922        C  0.49938497  0.28897175  0.56553169     0.84600
N923        N  0.95977282  0.25140822  0.56544220    -0.76100
C924        C  0.95310726  0.21730373  0.57730303     0.84700
N925        N  0.48641731  0.22104684  0.58927268    -0.77800
C926        C  0.90599578  0.00853153  0.56616584     0.82200
N927        N  0.87932339  0.97529383  0.57783230    -0.76100
C928        C  0.84952328  0.98005058  0.58815621     0.84600
N929        N  0.84630275  0.01789595  0.58673626    -0.76100
C930        C  0.87310890  0.05130743  0.57519505     0.84700
N931        N  0.90313736  0.04658442  0.56505068    -0.77800
C932        C  0.83144418  0.13498338  0.57227287     0.05100
C933        C  0.83193682  0.09415760  0.57260916    -0.11100
C934        C  0.87181632  0.09368629  0.57464904     0.02600
C935        C  0.91113025  0.13419946  0.57640160    -0.09600
C936        C  0.91115841  0.17510948  0.57607475     0.05100
C937        C  0.87123924  0.17532034  0.57400680    -0.09000
H938        H  0.80145144  0.06291081  0.57138764     0.10700
H939        H  0.94188388  0.13386003  0.57793867     0.08200
H940        H  0.87115252  0.20691425  0.57373479     0.08000
O941        O  0.60586503  0.19139540  0.67030643    -0.78900
O942        O  0.74104083  0.35392962  0.62297269    -0.63600
O943        O  0.68890207  0.25764712  0.65787174    -1.10200
C944        C  0.68122325  0.36593704  0.69736422     1.07900
O945        O  0.78434109  0.40319428  0.64548978    -0.76800
O946        O  0.78002628  0.37239351  0.68180712    -0.64400
Ni947      Ni  0.64262836  0.20055151  0.64872493     1.34900
C948        C  0.76771499  0.33685395  0.69125684     0.86700
O949        O  0.72897894  0.27148411  0.62257035    -0.77400
O950        O  0.67503889  0.20142546  0.62671779    -0.87700
C951        C  0.77372372  0.39098812  0.62789958     0.86300
O952        O  0.60987700  0.22236974  0.63410698    -0.65900
O953        O  0.71534820  0.39420493  0.68907259    -0.85100
C954        C  0.62191056  0.25785907  0.62466810     0.87100
C955        C  0.70921879  0.22995953  0.61856178     1.08600
H956        H  0.67801407  0.34297897  0.65253805     0.40500
O957        O  0.70088438  0.33774151  0.65800498    -1.07800
O958        O  0.72849965  0.30503803  0.69076304    -0.64500
Ni959      Ni  0.67510293  0.29038446  0.67599443     1.26300
O960        O  0.66100807  0.28994837  0.62514606    -0.64700
O961        O  0.66108683  0.32431773  0.69338628    -0.77000
C962        C  0.61623492  0.20378409  0.68788383     0.86500
O963        O  0.64832757  0.24129393  0.69284730    -0.64200
Ni964      Ni  0.74764823  0.39460733  0.66708976     1.27400
Ni965      Ni  0.71456485  0.30500974  0.63988456     1.26100
H966        H  0.71189821  0.25260703  0.66333903     0.41000
C967        C  0.86463597  0.29896800  0.40010660     0.82200
N968        N  0.89774185  0.32590399  0.41255667    -0.76100
C969        C  0.89276092  0.35334137  0.42499008     0.84600
N970        N  0.85440788  0.35424410  0.42490702    -0.76100
C971        C  0.82077036  0.32695321  0.41248384     0.84700
N972        N  0.82599520  0.29921773  0.40008784    -0.77800
C973        C  0.58469977  0.20732377  0.39586100     0.82200
N974        N  0.62434024  0.24478267  0.39679730    -0.76100
C975        C  0.65706943  0.24721954  0.40876636     0.84600
N976        N  0.64969975  0.21203595  0.42006415    -0.76100
C977        C  0.60985233  0.17467323  0.41939285     0.84700
N978        N  0.57731298  0.17235872  0.40730465    -0.77800
C979        C  0.70658733  0.45616167  0.41988026     0.82200
N980        N  0.73490622  0.49012013  0.40896058    -0.76100
C981        C  0.76560596  0.48562014  0.39925490     0.84600
N982        N  0.76790611  0.44724278  0.40048591    -0.76100
C983        C  0.73940899  0.41313544  0.41128933     0.84700
N984        N  0.70865029  0.41770991  0.42086147    -0.77800
C985        C  0.77913051  0.32797607  0.41216410     0.05100
C986        C  0.73903509  0.28793105  0.41105884    -0.11100
C987        C  0.69938145  0.28887681  0.41022462     0.02600
C988        C  0.70004587  0.33011133  0.41057079    -0.09600
C989        C  0.73977252  0.37028878  0.41162512     0.05100
C990        C  0.77928556  0.36907669  0.41247067    -0.09000
H991        H  0.73870573  0.25613619  0.41070274     0.10700
H992        H  0.66946782  0.33092606  0.40983362     0.08200
H993        H  0.81009281  0.40005039  0.41316112     0.08000
O994        O  0.52895643  0.36850457  0.50698029    -0.78900
O995        O  0.58025685  0.04292955  0.45710451    -0.63600
O996        O  0.57395633  0.45710699  0.49382085    -1.10200
C997        C  0.49289792  0.00397277  0.53003162     1.07900
O998        O  0.57551120  0.09205072  0.47662588    -0.76800
O999        O  0.60441956  0.07161292  0.51031379    -0.64400
Ni1000     Ni  0.55824918  0.39845598  0.48401138     1.34900
C1001       C  0.60991280  0.04638070  0.52217618     0.86700
O1002       O  0.61988303  0.49441214  0.46111577    -0.77400
O1003       O  0.58863502  0.42006290  0.46024215    -0.87700
C1004       C  0.58247657  0.08035719  0.46032475     0.86300
O1005       O  0.50452656  0.39032148  0.47256711    -0.65900
O1006       O  0.52198352  0.04201229  0.52459307    -0.85100
C1007       C  0.50005510  0.41614261  0.46071752     0.87100
C1008       C  0.61711564  0.45843820  0.45478334     1.08600
H1009       H  0.50627304  0.49171207  0.48328673     0.40500
O1010       O  0.53415184  0.00420782  0.49030901    -1.07800
O1011       O  0.58028364  0.00657013  0.52534968    -0.64500
Ni1012     Ni  0.53204973  0.46207152  0.50909261     1.26300
O1013       O  0.52950468  0.45641667  0.45838354    -0.64700
O1014       O  0.48942021  0.46734637  0.52354384    -0.77000
C1015       C  0.52499298  0.38112135  0.52367593     0.86500
O1016       O  0.53008946  0.41962001  0.52728746    -0.64200
Ni1017     Ni  0.54939658  0.06276455  0.50014345     1.27400
Ni1018     Ni  0.57686811  0.49948340  0.47520106     1.26100
H1019       H  0.60186554  0.46883510  0.50077746     0.41000
C1020       C  0.96423545  0.52345979  0.25016276     0.82200
N1021       N  0.00412597  0.52572038  0.25097712    -0.76100
C1022       C  0.01108906  0.49667777  0.24023530     0.84600
N1023       N  0.97794508  0.46554556  0.22875266    -0.76100
C1024       C  0.93835772  0.46360213  0.22776091     0.84700
N1025       N  0.93137515  0.49231048  0.23859262    -0.77800
C1026       C  0.72197996  0.15212160  0.23688954     0.82200
N1027       N  0.75441209  0.15384276  0.24881966    -0.76100
C1028       C  0.74726896  0.11811327  0.25963149     0.84600
N1029       N  0.70788158  0.08032560  0.25821215    -0.76100
C1030       C  0.67516503  0.07841276  0.24636218     0.84700
N1031       N  0.68236587  0.11447358  0.23568930    -0.77800
C1032       C  0.56754334  0.33964077  0.25394633     0.82200
N1033       N  0.59359772  0.33284521  0.24194084    -0.76100
C1034       C  0.61953041  0.36561530  0.22993889     0.84600
N1035       N  0.61972629  0.40537284  0.23010171    -0.76100
C1036       C  0.59340157  0.41216095  0.24198718     0.84700
N1037       N  0.56720749  0.37909788  0.25383774    -0.77800
C1038       C  0.55337412  0.49688010  0.24168659     0.05100
C1039       C  0.55384162  0.45609760  0.24120040    -0.11100
C1040       C  0.59343309  0.45521216  0.24219754     0.02600
C1041       C  0.63293837  0.49551360  0.24376213    -0.09600
C1042       C  0.63311096  0.53659599  0.24449376     0.05100
C1043       C  0.59318620  0.53713771  0.24339438    -0.09000
H1044       H  0.52329663  0.42488163  0.24003563     0.10700
H1045       H  0.66358895  0.49485864  0.24456065     0.08200
H1046       H  0.59317738  0.06881799  0.24351083     0.08000
O1047       O  0.86111087  0.31420075  0.14649562    -0.78900
O1048       O  0.72450992  0.34115647  0.19500744    -0.63600
O1049       O  0.77969521  0.30230933  0.15895966    -1.10200
C1050       C  0.79423837  0.42672131  0.12349979     1.07900
O1051       O  0.68576275  0.35528317  0.17283638    -0.76800
O1052       O  0.69275049  0.33314324  0.13618141    -0.64400
Ni1053     Ni  0.82510834  0.29010786  0.16849834     1.34900
C1054       C  0.70569870  0.31155527  0.12592415     0.86700
O1055       O  0.73496531  0.26961055  0.19289773    -0.77400
O1056       O  0.79426487  0.26125050  0.19126774    -0.87700
C1057       C  0.69418433  0.34969847  0.19025661     0.86300
O1058       O  0.85790456  0.34607723  0.18184039    -0.65900
O1059       O  0.75908181  0.41967491  0.13120376    -0.85100
C1060       C  0.84436582  0.36580629  0.19288672     0.87100
C1061       C  0.75769167  0.25159948  0.19822491     1.08600
H1062       H  0.79181243  0.39808128  0.16792327     0.40500
O1063       O  0.76934239  0.37162357  0.16130110    -1.07800
O1064       O  0.74485899  0.31859658  0.12649204    -0.64500
Ni1065     Ni  0.79676438  0.35305296  0.14278318     1.26300
O1066       O  0.80433352  0.35546750  0.19374659    -0.64700
O1067       O  0.81399204  0.40472384  0.12734581    -0.77000
C1068       C  0.85397792  0.32334093  0.12945806     0.86500
O1069       O  0.82474202  0.33373212  0.12513996    -0.64200
Ni1070     Ni  0.72468567  0.38533820  0.15224444     1.27400
Ni1071     Ni  0.75224018  0.32112126  0.17745494     1.26100
H1072       H  0.75746496  0.27564111  0.15236337     0.41000
O1073       O  0.83173427  0.05532508  0.34203015    -0.78900
O1074       O  0.96279490  0.21277821  0.29000014    -0.63600
O1075       O  0.91223841  0.12166732  0.32751720    -1.10200
C1076       C  0.90190845  0.23565348  0.36202154     1.07900
O1077       O  0.00629236  0.26386906  0.31180575    -0.76800
O1078       O  0.00154269  0.24220710  0.34942400    -0.64400
Ni1079     Ni  0.86578114  0.06351254  0.31956024     1.34900
C1080       C  0.99025977  0.20775277  0.35952325     0.86700
O1081       O  0.95157418  0.13043234  0.29217371    -0.77400
O1082       O  0.89489830  0.06231837  0.29663410    -0.87700
C1083       C  0.99505969  0.25065589  0.29437046     0.86300
O1084       O  0.83153139  0.08464210  0.30577094    -0.65900
O1085       O  0.93507384  0.26323091  0.35296888    -0.85100
C1086       C  0.84335985  0.11748031  0.29461723     0.87100
C1087       C  0.92954757  0.08893012  0.28823343     1.08600
H1088       H  0.89966461  0.20489029  0.31883555     0.40500
O1089       O  0.92299329  0.20113437  0.32484107    -1.07800
O1090       O  0.95180067  0.17468429  0.35903016    -0.64500
Ni1091     Ni  0.89809305  0.15705152  0.34415441     1.26300
O1092       O  0.88289741  0.14802768  0.29334777    -0.64700
O1093       O  0.88379736  0.19346310  0.35990053    -0.77000
C1094       C  0.84156359  0.07226743  0.35899041     0.86500
O1095       O  0.87232475  0.11141068  0.36264982    -0.64200
Ni1096     Ni  0.96878271  0.25987548  0.33234169     1.27400
Ni1097     Ni  0.93708827  0.16618462  0.30817585     1.26100
H1098       H  0.93539357  0.11759783  0.33349977     0.41000
C1099       C  0.52028960  0.27938739  0.27929672    -0.11300
C1100       C  0.54153176  0.30585000  0.26730944    -0.12900
C1101       C  0.64599982  0.35794460  0.21671798    -0.11300
C1102       C  0.66787267  0.35281416  0.20497463    -0.12900
C1103       C  0.74163066  0.21818132  0.21278069    -0.11300
C1104       C  0.73105520  0.18858777  0.22425647    -0.12900
C1105       C  0.78176127  0.11968694  0.27212321    -0.11300
C1106       C  0.81023802  0.11966134  0.28249072    -0.12900
C1107       C  0.87595691  0.40125240  0.20528809    -0.11300
C1108       C  0.90370314  0.43024018  0.21563331    -0.12900
C1109       C  0.94455067  0.07038658  0.27366826    -0.11300
C1110       C  0.95534238  0.55109859  0.26277540    -0.12900
C1111       C  0.79350412  0.51983507  0.38648004    -0.11300
C1112       C  0.81579418  0.54557195  0.37450335    -0.12900
C1113       C  0.67453819  0.46050394  0.43064521    -0.11300
C1114       C  0.64772044  0.46084313  0.44097261    -0.12900
C1115       C  0.55041488  0.20555586  0.38312368    -0.11300
C1116       C  0.52274948  0.20607184  0.37233439    -0.12900
C1117       C  0.60112843  0.13926450  0.43265549    -0.11300
C1118       C  0.59316682  0.11142115  0.44482690    -0.12900
C1119       C  0.88396436  0.25367429  0.37536993    -0.11300
C1120       C  0.87204399  0.27215020  0.38649399    -0.12900
C1121       C  0.92822686  0.38012201  0.43839112    -0.11300
C1122       C  0.96056754  0.39839010  0.44886489    -0.12900
C1123       C  0.82301620  0.94635969  0.60145865    -0.11300
C1124       C  0.80023952  0.41992222  0.61314614    -0.12900
C1125       C  0.46297850  0.00237624  0.54410871    -0.11300
C1126       C  0.93707426  0.00369144  0.55477183    -0.12900
C1127       C  0.56110556  0.26175802  0.60212978    -0.11300
C1128       C  0.58947797  0.26144075  0.61251716    -0.12900
C1129       C  0.51453497  0.35007200  0.53916994    -0.11300
C1130       C  0.50723389  0.32304352  0.55165835    -0.12900
C1131       C  0.73862184  0.19519226  0.59315960    -0.11300
C1132       C  0.72675395  0.21361939  0.60430734    -0.12900
C1133       C  0.68372886  0.08271565  0.54323255    -0.11300
C1134       C  0.65067801  0.06434211  0.53316393    -0.12900
C1135       C  0.56861499  0.14841024  0.71469780    -0.11300
C1136       C  0.59007772  0.17440129  0.70260186    -0.12900
C1137       C  0.95432029  0.11772087  0.77925976    -0.11300
C1138       C  0.97141834  0.10477771  0.76794440    -0.12900
C1139       C  0.73669783  0.04161482  0.78260105    -0.11300
C1140       C  0.70654753  0.01952040  0.77134713    -0.12900
C1141       C  0.65315459  0.40185934  0.72296968    -0.11300
C1142       C  0.66437569  0.38282222  0.71178099    -0.12900
C1143       C  0.88815025  0.26665093  0.76019719    -0.11300
C1144       C  0.88831426  0.24051930  0.77190756    -0.12900
C1145       C  0.82813124  0.33176377  0.71369671    -0.11300
C1146       C  0.79992154  0.33274209  0.70340259    -0.12900
C1147       C  0.51496299  0.21774653  0.87057191    -0.11300
C1148       C  0.54454860  0.23920275  0.88223876    -0.12900
C1149       C  0.60339802  0.36018172  0.92981428    -0.11300
C1150       C  0.60273448  0.38692159  0.94094355    -0.12900
C1151       C  0.78266613  0.15505067  0.88447927    -0.11300
C1152       C  0.79998494  0.14204627  0.87335378    -0.12900
C1153       C  0.66776634  0.07515652  0.94803775    -0.11300
C1154       C  0.68448215  0.10516175  0.93682617    -0.12900
C1155       C  0.86364454  0.98665374  0.88908321    -0.11300
C1156       C  0.86375049  0.01413152  0.87810952    -0.12900
C1157       C  0.95441219  0.43881994  0.94984598    -0.11300
C1158       C  0.92446074  0.42956463  0.93818592    -0.12900
C1159       C  0.82345190  0.49193793  0.09844990    -0.11300
C1160       C  0.81224737  0.46182508  0.10970788    -0.12900
C1161       C  0.73560010  0.04082551  0.03771875    -0.11300
C1162       C  0.76598179  0.05007585  0.04904797    -0.12900
C1163       C  0.90262964  0.31815664  0.10246973    -0.11300
C1164       C  0.88048677  0.32173714  0.11451120    -0.12900
C1165       C  0.02273750  0.40546972  0.04054157    -0.11300
C1166       C  0.00557713  0.37519806  0.05162395    -0.12900
C1167       C  0.64668062  0.24902384  0.10216082    -0.11300
C1168       C  0.67428368  0.27735080  0.11286960    -0.12900
C1169       C  0.58855689  0.09446003  0.04618396    -0.11300
C1170       C  0.58891101  0.12180327  0.05728122    -0.12900
C1171       C  0.61154271  0.71605478  0.09002632     0.82200
N1172       N  0.57246506  0.71540305  0.08875249    -0.76100
C1173       C  0.03861934  0.68363580  0.07776770     0.84600
N1174       N  0.04429529  0.65275987  0.06789688    -0.76100
C1175       C  0.58345771  0.65363308  0.06886305     0.84700
N1176       N  0.61718231  0.68525721  0.07997171    -0.77800
C1177       C  0.98031282  0.83997887  0.06476854     0.82200
N1178       N  0.95404603  0.84532910  0.07716903    -0.76100
C1179       C  0.92818377  0.81138622  0.08866099     0.84600
N1180       N  0.92826643  0.77190387  0.08763293    -0.76100
C1181       C  0.95468665  0.76641124  0.07535218     0.84700
N1182       N  0.98090968  0.80065128  0.06395185    -0.77800
C1183       C  0.80168924  0.55624716  0.06187646     0.82200
N1184       N  0.79672271  0.02276388  0.07374985    -0.76100
C1185       C  0.83037127  0.02727023  0.08557126     0.84600
N1186       N  0.86952959  0.56550238  0.08540161    -0.76100
C1187       C  0.87459128  0.59964747  0.07380718     0.84700
N1188       N  0.84042021  0.59489660  0.06211070    -0.77800
C1189       C  0.91636063  0.64223047  0.07436291     0.05100
C1190       C  0.95665658  0.64250298  0.07552622    -0.11100
C1191       C  0.99624481  0.68316232  0.07630420     0.02600
C1192       C  0.99527136  0.72361960  0.07581031    -0.09600
C1193       C  0.95533027  0.72376865  0.07477413     0.05100
C1194       C  0.91601624  0.68305835  0.07402638    -0.09000
H1195       H  0.95719429  0.61114675  0.07591774     0.10700
H1196       H  0.02562411  0.75507186  0.07648053     0.08200
H1197       H  0.88511438  0.68319880  0.07337760     0.08000
C1198       C  0.88883608  0.92209974  0.92478282     0.82200
N1199       N  0.89324530  0.95593579  0.91320581    -0.76100
C1200       C  0.85925125  0.95100030  0.90144462     0.84600
N1201       N  0.82063177  0.91231760  0.90140845    -0.76100
C1202       C  0.81586052  0.87811784  0.91281796     0.84700
N1203       N  0.85020576  0.88308923  0.92449255    -0.77800
C1204       C  0.75707295  0.66396765  0.89771775     0.82200
N1205       N  0.73251741  0.63193322  0.91022451    -0.76100
C1206       C  0.70805739  0.63925651  0.92290771     0.84600
N1207       N  0.70787328  0.67879116  0.92303904    -0.76100
C1208       C  0.73272657  0.71126015  0.91061886     0.84700
N1209       N  0.75749799  0.70382295  0.89799857    -0.77800
C1210       C  0.73303774  0.75440208  0.91091386     0.05100
C1211       C  0.77290207  0.79453700  0.91232225    -0.11100
C1212       C  0.77361065  0.83586007  0.91227132     0.02600
C1213       C  0.73373694  0.83660395  0.91085345    -0.09600
C1214       C  0.69352558  0.79656949  0.90943137     0.05100
C1215       C  0.69351789  0.75557975  0.90954540    -0.09000
H1216       H  0.80338599  0.79356089  0.91322707     0.10700
H1217       H  0.73402489  0.86838200  0.91069976     0.08200
H1218       H  0.66277815  0.72455398  0.90849437     0.08000
C1219       C  0.60851539  0.82914997  0.91752857     0.82200
N1220       N  0.57491557  0.79970590  0.90576990    -0.78500
C1221       C  0.57947063  0.76909100  0.89508476     0.84600
N1222       N  0.61773065  0.76782712  0.89629748    -0.76100
C1223       C  0.65168678  0.79758085  0.90797884     0.84700
N1224       N  0.64684449  0.82824758  0.91849799    -0.77800
O1225       O  0.98135756  0.95940534  0.98152291    -0.78900
O1226       O  0.66403763  0.52171201  0.02771771    -0.63600
O1227       O  0.57182823  0.50990102  0.99272392    -1.10200
C1228       C  0.60768275  0.91873881  0.95550419     1.07900
O1229       O  0.70815887  0.51804563  0.00631794    -0.76800
O1230       O  0.67949527  0.53586608  0.97220744    -0.64400
Ni1231     Ni  0.51674065  0.99626889  0.00330403     1.34900
C1232       C  0.65186032  0.53894487  0.96088463     0.86700
O1233       O  0.61631333  0.56203360  0.02535976    -0.77400
O1234       O  0.54399758  0.53404612  0.02615117    -0.87700
C1235       C  0.70064678  0.52630416  0.02316186     0.86300
O1236       O  0.01058886  0.94472045  0.01630013    -0.65900
O1237       O  0.64638367  0.94682759  0.96123263    -0.85100
C1238       C  0.53844331  0.94179555  0.02753597     0.87100
C1239       C  0.58290253  0.56181610  0.03186421     1.08600
H1240       H  0.60762233  0.94205881  0.00214313     0.40500
O1241       O  0.61800675  0.96935455  0.99504535    -1.07800
O1242       O  0.61131660  0.51014487  0.95987492    -0.64500
Ni1243     Ni  0.57251581  0.96374624  0.97707831     1.26300
O1244       O  0.57913926  0.97003891  0.02808004    -0.64700
O1245       O  0.57401693  0.91772056  0.96216009    -0.77000
C1246       C  0.98920203  0.95255412  0.96447215     0.86500
O1247       O  0.52623211  0.95833088  0.95984853    -0.64200
Ni1248     Ni  0.67297275  0.98262589  0.98437882     1.27400
Ni1249     Ni  0.61751613  0.51575218  0.01058038     1.26100
H1250       H  0.58211209  0.53723566  0.98566830     0.41000
C1251       C  0.89296988  0.80273861  0.74803520     0.82200
N1252       N  0.93145826  0.84162366  0.74886843    -0.76100
C1253       C  0.93620365  0.87735878  0.73860417     0.84600
N1254       N  0.90204636  0.87384422  0.72732932    -0.76100
C1255       C  0.86361177  0.83483277  0.72613158     0.84700
N1256       N  0.85892245  0.79927555  0.73662999    -0.77800
C1257       C  0.67183637  0.48945164  0.75813753     0.82200
N1258       N  0.67746744  0.95985782  0.74745608    -0.76100
C1259       C  0.64466823  0.93022001  0.73547234     0.84600
N1260       N  0.60578296  0.93003187  0.73428466    -0.76100
C1261       C  0.59976465  0.95973268  0.74503065     0.84700
N1262       N  0.63309326  0.48954636  0.75681355    -0.77800
C1263       C  0.54320517  0.61572093  0.72843957     0.82200
N1264       N  0.54249690  0.57579281  0.72887105    -0.76100
C1265       C  0.51757227  0.54432726  0.74160013     0.84600
N1266       N  0.49359283  0.55322332  0.75411778    -0.76100
C1267       C  0.49487183  0.59355551  0.75393068     0.84700
N1268       N  0.51959035  0.62466053  0.74104036    -0.77800
C1269       C  0.55783977  0.45990974  0.74328536     0.05100
C1270       C  0.51794440  0.91982302  0.74166360    -0.11100
C1271       C  0.47786616  0.91999151  0.74015116     0.02600
C1272       C  0.47797080  0.46076938  0.74013273    -0.09600
C1273       C  0.51744035  0.50122313  0.74192814     0.05100
C1274       C  0.55719590  0.50057240  0.74349082    -0.09000
H1275       H  0.51820388  0.88831503  0.74147412     0.10700
H1276       H  0.94726799  0.46126049  0.73892994     0.08200
H1277       H  0.58768747  0.53182468  0.74475851     0.08000
O1278       O  0.48887142  0.70414650  0.83820103    -0.78900
O1279       O  0.81062501  0.58780538  0.79111528    -0.63600
O1280       O  0.89992615  0.67154427  0.82611962    -1.10200
C1281       C  0.85804441  0.54229160  0.86414101     1.07900
O1282       O  0.76370123  0.55754280  0.81432509    -0.76800
O1283       O  0.78860489  0.58588864  0.85111695    -0.64400
Ni1284     Ni  0.95638411  0.71321576  0.81710536     1.34900
C1285       C  0.81595563  0.62111531  0.86024461     0.86700
O1286       O  0.86079327  0.67622768  0.79057815    -0.77400
O1287       O  0.93084541  0.72930032  0.79548636    -0.87700
C1288       C  0.77213045  0.56335587  0.79658480     0.86300
O1289       O  0.96402462  0.67173931  0.80153227    -0.65900
O1290       O  0.82075862  0.52693164  0.85539806    -0.85100
C1291       C  0.93691150  0.63698206  0.79200459     0.87100
C1292       C  0.89350171  0.71359691  0.78675395     1.08600
H1293       H  0.86330303  0.56850801  0.81999705     0.40500
O1294       O  0.85209536  0.58638913  0.82575923    -1.07800
O1295       O  0.85711134  0.63856796  0.85900821    -0.64500
Ni1296     Ni  0.89590271  0.62693699  0.84392712     1.26300
O1297       O  0.89560935  0.61959465  0.79290790    -0.64700
O1298       O  0.89059946  0.58047849  0.86101598    -0.77000
C1299       C  0.97978361  0.69593977  0.85582446     0.86500
O1300       O  0.94143343  0.66932410  0.86092835    -0.64200
Ni1301     Ni  0.79535036  0.54524625  0.83463704     1.27400
Ni1302     Ni  0.85617640  0.63064651  0.80791380     1.26100
H1303       H  0.88846019  0.68919059  0.83188078     0.41000
C1304       C  0.74669258  0.66729476  0.58048557     0.82200
N1305       N  0.78462349  0.66569492  0.58181267    -0.76100
C1306       C  0.78992249  0.63608466  0.57066766     0.84600
N1307       N  0.75680086  0.60803452  0.55813632    -0.76100
C1308       C  0.71901154  0.61024948  0.55675784     0.84700
N1309       N  0.71413889  0.63964415  0.56800033    -0.77800
C1310       C  0.52626712  0.75894056  0.58939626     0.82200
N1311       N  0.53261418  0.79288871  0.57749619    -0.76100
C1312       C  0.49932384  0.78928445  0.56555890     0.84600
N1313       N  0.95979207  0.75161692  0.56546068    -0.76100
C1314       C  0.95337544  0.71736018  0.57718066     0.84700
N1315       N  0.48686737  0.72107640  0.58902162    -0.77800
C1316       C  0.90570088  0.50814804  0.56605594     0.82200
N1317       N  0.87874860  0.47483229  0.57762490    -0.76100
C1318       C  0.84899547  0.47969723  0.58793987     0.84600
N1319       N  0.84609227  0.51773011  0.58660384    -0.76100
C1320       C  0.87317256  0.55122857  0.57516511     0.84700
N1321       N  0.90315792  0.54639357  0.56503075    -0.77800
C1322       C  0.83166132  0.63503197  0.57225337     0.05100
C1323       C  0.83213372  0.59420159  0.57262060    -0.11100
C1324       C  0.87199875  0.59368602  0.57463197     0.02600
C1325       C  0.91134772  0.63419360  0.57633978    -0.09600
C1326       C  0.91141171  0.67513359  0.57598900     0.05100
C1327       C  0.87148426  0.67535649  0.57394188    -0.09000
H1328       H  0.80162856  0.56296918  0.57143710     0.10700
H1329       H  0.94208774  0.63382324  0.57785619     0.08200
H1330       H  0.87140931  0.70695545  0.57365378     0.08000
O1331       O  0.60575142  0.69171297  0.67010943    -0.78900
O1332       O  0.74157475  0.85430082  0.62307397    -0.63600
O1333       O  0.68896443  0.75782038  0.65783047    -1.10200
C1334       C  0.68095889  0.86600908  0.69734216     1.07900
O1335       O  0.78466659  0.90335107  0.64570363    -0.76800
O1336       O  0.77988512  0.87266576  0.68206293    -0.64400
Ni1337     Ni  0.64272676  0.70079482  0.64861490     1.34900
C1338       C  0.76758092  0.83700188  0.69142012     0.86700
O1339       O  0.72935283  0.77176925  0.62260698    -0.77400
O1340       O  0.67538285  0.70168201  0.62670013    -0.87700
C1341       C  0.77425468  0.89128738  0.62808908     0.86300
O1342       O  0.61020414  0.72268103  0.63387181    -0.65900
O1343       O  0.71500966  0.89436657  0.68903175    -0.85100
C1344       C  0.62235612  0.75821528  0.62445462     0.87100
C1345       C  0.70961837  0.73024214  0.61858390     1.08600
H1346       H  0.67815840  0.84314578  0.65251977     0.40500
O1347       O  0.70101062  0.83792158  0.65801936    -1.07800
O1348       O  0.72843413  0.80503612  0.69077291    -0.64500
Ni1349     Ni  0.67510634  0.79048940  0.67596722     1.26300
O1350       O  0.66144382  0.79034129  0.62504839    -0.64700
O1351       O  0.66102365  0.82436196  0.69339625    -0.77000
C1352       C  0.61611977  0.70383764  0.68771490     0.86500
O1353       O  0.64822574  0.74128044  0.69274959    -0.64200
Ni1354     Ni  0.74765043  0.89479047  0.66717344     1.27400
Ni1355     Ni  0.71483779  0.80526541  0.63990629     1.26100
H1356       H  0.71189773  0.75270965  0.66332036     0.41000
C1357       C  0.86429656  0.79871094  0.40053666     0.82200
N1358       N  0.89751972  0.82564343  0.41293185    -0.76100
C1359       C  0.89275405  0.85325098  0.42534413     0.84600
N1360       N  0.85449722  0.85434206  0.42529977    -0.76100
C1361       C  0.82073796  0.82705758  0.41293009     0.84700
N1362       N  0.82574807  0.79914703  0.40054943    -0.77800
C1363       C  0.58491440  0.70759948  0.39612407     0.82200
N1364       N  0.62446090  0.74516747  0.39717884    -0.76100
C1365       C  0.65715562  0.74757740  0.40916124     0.84600
N1366       N  0.64984868  0.71224692  0.42034713    -0.76100
C1367       C  0.61009289  0.67477175  0.41955894     0.84700
N1368       N  0.57758398  0.67248462  0.40745855    -0.77800
C1369       C  0.70682953  0.95666192  0.41998253     0.82200
N1370       N  0.73515441  0.99054348  0.40902609    -0.76100
C1371       C  0.76583438  0.98594763  0.39934080     0.84600
N1372       N  0.76810443  0.94755546  0.40063611    -0.76100
C1373       C  0.73959873  0.91353267  0.41147596     0.84700
N1374       N  0.70887047  0.91820827  0.42102113    -0.77800
C1375       C  0.77918416  0.82824275  0.41264234     0.05100
C1376       C  0.73906512  0.78824320  0.41159808    -0.11100
C1377       C  0.69945032  0.78924287  0.41066813     0.02600
C1378       C  0.70016920  0.83050861  0.41088917    -0.09600
C1379       C  0.73992909  0.87066580  0.41191014     0.05100
C1380       C  0.77941688  0.86939052  0.41283685    -0.09000
H1381       H  0.73869225  0.75642341  0.41131985     0.10700
H1382       H  0.66961328  0.83136330  0.41007196     0.08200
H1383       H  0.81025127  0.90033489  0.41348525     0.08000
O1384       O  0.52901271  0.86900713  0.50719332    -0.78900
O1385       O  0.58014745  0.54262676  0.45705241    -0.63600
O1386       O  0.57407365  0.95757779  0.49397954    -1.10200
C1387       C  0.49271748  0.50348468  0.52998428     1.07900
O1388       O  0.57594201  0.59188035  0.47668602    -0.76800
O1389       O  0.60429536  0.57136909  0.51050232    -0.64400
Ni1390     Ni  0.55865368  0.89892358  0.48428522     1.34900
C1391       C  0.60986925  0.54604218  0.52228206     0.86700
O1392       O  0.62007161  0.99483186  0.46125838    -0.77400
O1393       O  0.58937480  0.92050752  0.46059613    -0.87700
C1394       C  0.58267814  0.58016302  0.46034179     0.86300
O1395       O  0.50502077  0.89054140  0.47265476    -0.65900
O1396       O  0.52152578  0.54157778  0.52446448    -0.85100
C1397       C  0.50041429  0.91631295  0.46082582     0.87100
C1398       C  0.61755483  0.95890110  0.45501979     1.08600
H1399       H  0.50628844  0.99204073  0.48328407     0.40500
O1400       O  0.53416511  0.50387659  0.49028656    -1.07800
O1401       O  0.58042516  0.50604532  0.52528732    -0.64500
Ni1402     Ni  0.53200972  0.96249371  0.50915312     1.26300
O1403       O  0.52970797  0.95665313  0.45849904    -0.64700
O1404       O  0.48928434  0.96778067  0.52349749    -0.77000
C1405       C  0.52488633  0.88165110  0.52385308     0.86500
O1406       O  0.52999862  0.92016684  0.52741991    -0.64200
Ni1407     Ni  0.54938522  0.56244016  0.50011802     1.27400
Ni1408     Ni  0.57697664  0.99985343  0.47529948     1.26100
H1409       H  0.60195593  0.96941519  0.50096759     0.41000
C1410       C  0.96408632  0.02359696  0.24961774     0.82200
N1411       N  0.00399223  0.02588241  0.25045591    -0.76100
C1412       C  0.01102074  0.99687636  0.23971716     0.84600
N1413       N  0.97790106  0.96573349  0.22821907    -0.76100
C1414       C  0.93829533  0.96376686  0.22720404     0.84700
N1415       N  0.93126760  0.99244427  0.23803412    -0.77800
C1416       C  0.72178567  0.65232163  0.23704603     0.82200
N1417       N  0.75428050  0.65408407  0.24894224    -0.76100
C1418       C  0.74723438  0.61832987  0.25971100     0.84600
N1419       N  0.70791491  0.58049916  0.25828815    -0.76100
C1420       C  0.67514900  0.57853987  0.24647401     0.84700
N1421       N  0.68221929  0.61461032  0.23583605    -0.77800
C1422       C  0.56725273  0.83979734  0.25422726     0.82200
N1423       N  0.59323636  0.83272938  0.24228029    -0.76100
C1424       C  0.61908403  0.86522256  0.23015068     0.84600
N1425       N  0.61926959  0.90497506  0.23013014    -0.76100
C1426       C  0.59301559  0.91203008  0.24195294     0.84700
N1427       N  0.56690388  0.87924527  0.25393166    -0.77800
C1428       C  0.55328070  0.99698845  0.24126685     0.05100
C1429       C  0.55364380  0.95614907  0.24083334    -0.11100
C1430       C  0.59316762  0.95513916  0.24201535     0.02600
C1431       C  0.63272852  0.99536856  0.24368335    -0.09600
C1432       C  0.63303629  0.03652039  0.24434951     0.05100
C1433       C  0.59315912  0.03718383  0.24308731    -0.09000
H1434       H  0.52306666  0.92497654  0.23960019     0.10700
H1435       H  0.66331729  0.99459862  0.24461293     0.08200
H1436       H  0.59311653  0.56872657  0.24385846     0.08000
O1437       O  0.85944198  0.81211206  0.14619171    -0.78900
O1438       O  0.72392313  0.84047555  0.19514010    -0.63600
O1439       O  0.77897012  0.80192849  0.15889265    -1.10200
C1440       C  0.79390024  0.92684764  0.12377440     1.07900
O1441       O  0.68542198  0.85533888  0.17311416    -0.76800
O1442       O  0.69224283  0.83279987  0.13649870    -0.64400
Ni1443     Ni  0.82426576  0.78961797  0.16851041     1.34900
C1444       C  0.70536422  0.81164334  0.12606588     0.86700
O1445       O  0.73398750  0.76877537  0.19268122    -0.77400
O1446       O  0.79426059  0.76211665  0.19165118    -0.87700
C1447       C  0.69371323  0.84925999  0.19048395     0.86300
O1448       O  0.85741434  0.84631061  0.18123482    -0.65900
O1449       O  0.75846083  0.91935220  0.13133353    -0.85100
C1450       C  0.84394426  0.86562704  0.19255383     0.87100
C1451       C  0.75723813  0.75161203  0.19832883     1.08600
H1452       H  0.79127652  0.89777479  0.16821089     0.40500
O1453       O  0.76887555  0.87141863  0.16150230    -1.07800
O1454       O  0.74465583  0.81909273  0.12648702    -0.64500
Ni1455     Ni  0.79640820  0.85312647  0.14293007     1.26300
O1456       O  0.80378912  0.85459616  0.19380411    -0.64700
O1457       O  0.81392787  0.90517592  0.12772802    -0.77000
C1458       C  0.85294151  0.82255574  0.12930746     0.86500
O1459       O  0.82452218  0.83420292  0.12518376    -0.64200
Ni1460     Ni  0.72422596  0.88516197  0.15245346     1.27400
Ni1461     Ni  0.75157274  0.82061406  0.17746497     1.26100
H1462       H  0.75676758  0.77539155  0.15220673     0.41000
O1463       O  0.83074069  0.55655852  0.34195912    -0.78900
O1464       O  0.96243266  0.71335382  0.29033352    -0.63600
O1465       O  0.91203870  0.62189512  0.32768766    -1.10200
C1466       C  0.90177531  0.73557602  0.36248776     1.07900
O1467       O  0.00613108  0.76399777  0.31225103    -0.76800
O1468       O  0.00136086  0.74266626  0.34993638    -0.64400
Ni1469     Ni  0.86560339  0.56366274  0.31988686     1.34900
C1470       C  0.99037267  0.70798471  0.35984819     0.86700
O1471       O  0.95071280  0.63069756  0.29213953    -0.77400
O1472       O  0.89569717  0.56193125  0.29742612    -0.87700
C1473       C  0.99482950  0.75109617  0.29478153     0.86300
O1474       O  0.83162625  0.58403215  0.30535191    -0.65900
O1475       O  0.93460641  0.76333302  0.35329876    -0.85100
C1476       C  0.84325974  0.61750314  0.29459504     0.87100
C1477       C  0.92959865  0.58890843  0.28865280     1.08600
H1478       H  0.89943814  0.70509237  0.31938813     0.40500
O1479       O  0.92287905  0.70135055  0.32527435    -1.07800
O1480       O  0.95210617  0.67460356  0.35921601    -0.64500
Ni1481     Ni  0.89822038  0.65711218  0.34453391     1.26300
O1482       O  0.88254003  0.64880786  0.29374984    -0.64700
O1483       O  0.88415483  0.69338250  0.36050558    -0.77000
C1484       C  0.84124823  0.57252153  0.35906857     0.86500
O1485       O  0.87271118  0.61116799  0.36291387    -0.64200
Ni1486     Ni  0.96855433  0.76009514  0.33274943     1.27400
Ni1487     Ni  0.93672995  0.66652179  0.30840128     1.26100
H1488       H  0.93529538  0.61783157  0.33355788     0.41000
C1489       C  0.52012053  0.77995646  0.27975080    -0.11300
C1490       C  0.54132498  0.80630388  0.26771851    -0.12900
C1491       C  0.64551098  0.85730095  0.21699477    -0.11300
C1492       C  0.66740171  0.85217723  0.20525655    -0.12900
C1493       C  0.74133133  0.71832100  0.21293255    -0.11300
C1494       C  0.73079086  0.68877409  0.22442466    -0.12900
C1495       C  0.78175036  0.61986380  0.27214055    -0.11300
C1496       C  0.81017077  0.61968553  0.28247576    -0.12900
C1497       C  0.87571556  0.90124065  0.20484154    -0.11300
C1498       C  0.90360238  0.93031855  0.21511008    -0.12900
C1499       C  0.94482054  0.57042893  0.27415866    -0.11300
C1500       C  0.95509333  0.05113201  0.26225264    -0.12900
C1501       C  0.79379514  0.02008791  0.38653843    -0.11300
C1502       C  0.81614871  0.04565716  0.37452009    -0.12900
C1503       C  0.67486772  0.96110079  0.43077715    -0.11300
C1504       C  0.64811711  0.96139027  0.44116526    -0.12900
C1505       C  0.55066147  0.70586754  0.38338038    -0.11300
C1506       C  0.52297881  0.70639040  0.37260744    -0.12900
C1507       C  0.60140032  0.63922659  0.43273841    -0.11300
C1508       C  0.59344209  0.61131297  0.44487554    -0.12900
C1509       C  0.88360191  0.75338615  0.37582108    -0.11300
C1510       C  0.87155708  0.77178800  0.38692409    -0.12900
C1511       C  0.92839236  0.88009887  0.43864423    -0.11300
C1512       C  0.96086777  0.89844677  0.44902509    -0.12900
C1513       C  0.82228460  0.44595724  0.60118728    -0.11300
C1514       C  0.80096924  0.92030550  0.61340812    -0.12900
C1515       C  0.46267413  0.50179339  0.54403386    -0.11300
C1516       C  0.93674556  0.50318010  0.55467037    -0.12900
C1517       C  0.56162587  0.76198624  0.60181166    -0.11300
C1518       C  0.59004620  0.76179107  0.61220940    -0.12900
C1519       C  0.51425877  0.85061395  0.53935313    -0.11300
C1520       C  0.50695028  0.82349609  0.55179724    -0.12900
C1521       C  0.73902393  0.69541406  0.59320923    -0.11300
C1522       C  0.72721913  0.71391483  0.60435098    -0.12900
C1523       C  0.68364947  0.58253636  0.54341591    -0.11300
C1524       C  0.65058404  0.56408575  0.53334394    -0.12900
C1525       C  0.56859462  0.64820170  0.71447571    -0.11300
C1526       C  0.58996909  0.67426598  0.70238392    -0.12900
C1527       C  0.95424321  0.61714404  0.77905454    -0.11300
C1528       C  0.97141715  0.60431017  0.76773393    -0.12900
C1529       C  0.73669011  0.54161008  0.78247242    -0.11300
C1530       C  0.70657193  0.51960253  0.77121168    -0.12900
C1531       C  0.65281252  0.90187125  0.72297582    -0.11300
C1532       C  0.66400162  0.88283015  0.71175919    -0.12900
C1533       C  0.88817392  0.76661937  0.76024142    -0.11300
C1534       C  0.88847334  0.74036771  0.77185090    -0.12900
C1535       C  0.82789807  0.83199063  0.71397807    -0.11300
C1536       C  0.79972091  0.83292331  0.70363768    -0.12900
C1537       C  0.51457505  0.71768554  0.87035624    -0.11300
C1538       C  0.54428110  0.73946355  0.88191711    -0.12900
C1539       C  0.60335684  0.86030418  0.92956007    -0.11300
C1540       C  0.60267873  0.88671474  0.94087211    -0.12900
C1541       C  0.78160832  0.65466741  0.88402585    -0.11300
C1542       C  0.79905866  0.64166790  0.87297527    -0.12900
C1543       C  0.66773051  0.57579161  0.94798213    -0.11300
C1544       C  0.68427418  0.60566234  0.93669253    -0.12900
C1545       C  0.86294111  0.48647498  0.88917105    -0.11300
C1546       C  0.86304999  0.51390808  0.87816991    -0.12900
C1547       C  0.95425459  0.93812614  0.94984003    -0.11300
C1548       C  0.92435799  0.92895958  0.93814774    -0.12900
C1549       C  0.82315315  0.99220307  0.09877455    -0.11300
C1550       C  0.81190110  0.96206000  0.11002395    -0.12900
C1551       C  0.73562253  0.54087636  0.03762885    -0.11300
C1552       C  0.76599466  0.54999816  0.04893802    -0.12900
C1553       C  0.90142464  0.81739817  0.10223848    -0.11300
C1554       C  0.87923928  0.82090059  0.11427821    -0.12900
C1555       C  0.02261115  0.90545712  0.04073268    -0.11300
C1556       C  0.00537841  0.87521479  0.05181492    -0.12900
C1557       C  0.64649799  0.74917969  0.10223956    -0.11300
C1558       C  0.67402340  0.77748941  0.11297678    -0.12900
C1559       C  0.58869807  0.59464083  0.04627179    -0.11300
C1560       C  0.58902954  0.62199842  0.05735268    -0.12900
loop_ 
_geom_bond_atom_site_label_1 
_geom_bond_atom_site_label_2 
_geom_bond_distance 
_geom_bond_site_symmetry_2 
_ccdc_geom_bond_type 
C1            N2   1.358       .  A
C1            N6   1.360       .  A
C1          C387   1.441       .  S
N2          C783   1.359       .  A
C3            N4   1.357       .  A
C3          N782   1.359       .  A
C3           C21   1.476       .  S
N4          C785   1.357       .  A
C5            N6   1.360       .  A
C5          N784   1.357       .  A
C5          C390   1.437       .  S
C7            N8   1.357       .  A
C7           N12   1.359       .  A
C7          C386   1.437       .  S
N8            C9   1.356       .  A
C9           N10   1.356       .  A
C9          C383   1.436       .  S
N10          C11   1.358       .  A
C11          N12   1.361       .  A
C11          C23   1.473       .  S
C13          N18   1.358       .  A
C13         N404   1.355       .  A
C13         C382   1.440       .  S
N14          C15   1.355       .  A
N14         C403   1.355       .  A
C15         N406   1.360       .  A
C15         C379   1.438       .  S
N16          C17   1.363       .  A
N16         C405   1.360       .  A
C17          N18   1.363       .  A
C17          C19   1.480       .  S
C19          C20   1.407       .  A
C19          C24   1.405       .  A
C20          C21   1.408       .  A
C20          H25   1.084       .  S
C21          C22   1.403       .  A
C22          C23   1.401       .  A
C22          H26   1.084       .  S
C23          C24   1.404       .  A
C24          H27   1.084       .  S
C28          N29   1.359       .  A
C28          N33   1.362       .  A
C28         C378   1.446       .  S
N29          C30   1.358       .  A
C30          N31   1.357       .  A
C30         C765   1.442       .  S
N31          C32   1.360       .  A
C32          N33   1.364       .  A
C32          C42   1.483       .  S
C34          N35   1.355       .  A
C34          N39   1.359       .  A
C34         C371   1.439       .  S
N35          C36   1.355       .  A
C36          N37   1.357       .  A
C36         C374   1.435       .  S
N37          C38   1.361       .  A
C38          N39   1.362       .  A
C38          C40   1.473       .  S
C40          C41   1.404       .  A
C40          C45   1.405       .  A
C41          C42   1.404       .  A
C41          H46   1.084       .  S
C42          C43   1.409       .  A
C43          C44   1.409       .  A
C43          H47   1.084       .  S
C44          C53   1.483       .  S
C44          C45   1.404       .  A
C45          H48   1.084       .  S
C49          N50   1.357       .  A
C49          N54   1.357       .  A
C49         C369   1.438       .  S
N50          C51   1.358       .  A
C51          N52   1.361       .  A
C51         C368   1.443       .  S
N52          C53   1.363       .  A
C53          N54   1.359       .  A
O55          C76   1.271       .  A
O55        Ni841   1.936   1_556  S
O56          C65   1.266       .  A
O56         Ni79   1.909       .  S
O57         Ni79   1.918   1_556  S
O57        Ni451   1.925   1_546  S
O57        Ni463   1.916   1_545  S
O57          H80   0.965       .  S
C58         C370   1.436       .  S
C58          O75   1.267       .  A
C58          O67   1.270       .  A
O59          C65   1.268       .  A
O59        Ni468   1.928   1_544  S
O60          C62   1.268       .  A
O60        Ni468   1.902   1_545  S
Ni61        O835   1.936   1_454  S
Ni61        O454   1.935       .  S
Ni61        O846   1.904       .  S
Ni61        O447   1.926   1_554  S
C62         C373   1.435       .  S
C62          O72   1.275       .  A
O63          C69   1.266       .  A
O63         Ni79   1.906       .  S
O64          C69   1.272       .  A
O64        Ni451   1.935   1_545  S
C65         C381   1.440       .  S
O66         C848   1.268       .  A
O66        Ni841   1.904       .  S
O67         Ni78   1.930       .  S
C68        C1165   1.437       .  S
C68          O74   1.275       .  A
C68         O846   1.268       .  A
C69         C389   1.437       .  S
H70          O71   0.965   1_554  S
O71         Ni73   1.919       .  S
O71         Ni78   1.927       .  S
O71        Ni469   1.919   1_556  S
O72        Ni463   1.942   1_545  S
Ni73         O77   1.911       .  S
Ni73         O75   1.909       .  S
Ni73        O462   1.942       .  S
Ni73        O447   1.916       .  S
O74        Ni469   1.943       .  S
C76         C377   1.445       .  S
C76         O857   1.267       .  A
O77         C856   1.267   1_455  A
Ni78        O449   1.927   1_556  S
Ni78        O450   1.903       .  S
Ni79        O464   1.942   1_545  S
Ni79        O461   1.919   1_544  S
C81          N82   1.357       .  A
C81          N86   1.362       .  A
C81         C363   1.444       .  S
N82          C83   1.358       .  A
C83          N84   1.359       .  A
C83         C881   1.479       .  S
N84          C85   1.359       .  A
C85          N86   1.362       .  A
C85         C365   1.445       .  S
C87          N92   1.359       .  A
C87         N478   1.355       .  A
C87         C360   1.438   1_565  S
N88          C89   1.354       .  A
N88         C477   1.354       .  A
C89          N90   1.358       .  A
C89         C361   1.435       .  S
N90          C91   1.361       .  A
C91         N482   1.362       .  A
C91         C489   1.479       .  S
N92         C481   1.363       .  A
C93          N94   1.356       .  A
C93          N98   1.357       .  A
C93         C355   1.439       .  S
N94          C95   1.359       .  A
C95          N96   1.362   1_455  A
C95         C103   1.475       .  S
N96          C97   1.361       .  A
C97          N98   1.359   1_655  A
C97        C1138   1.442       .  S
C99         C481   1.480       .  S
C99         C104   1.405   1_565  A
C99         C490   1.405       .  A
C100        C101   1.406   1_455  A
C100        C489   1.405       .  A
C100        H105   1.084       .  S
C101        C863   1.479       .  S
C101        C492   1.407       .  A
C102        C103   1.404   1_665  A
C102        C491   1.407       .  A
C102        H886   1.084       .  S
C103        C104   1.404       .  A
C104        H107   1.084       .  S
H106        C882   1.084       .  S
O108        C909   1.272       .  A
O108       Ni894   1.938       .  S
O109        C118   1.267       .  A
O109       Ni132   1.909       .  S
O110       Ni114   1.922       .  S
O110       Ni132   1.918       .  S
O110       Ni126   1.921       .  S
O110        H133   0.966       .  S
C111        C376   1.442       .  S
C111        O128   1.275       .  A
C111        O120   1.274       .  A
O112        C118   1.269       .  A
O112       Ni131   1.932       .  S
O113        C115   1.267       .  A
O113       Ni131   1.908       .  S
Ni114       O117   1.932       .  S
Ni114       O119   1.910       .  S
Ni114       O888   1.938       .  S
C115        C372   1.439       .  S
C115        O125   1.270       .  A
O116        C122   1.272       .  A
O116       Ni132   1.918       .  S
O117        C122   1.274       .  A
C118        C359   1.438       .  S
O119        C121   1.269       .  A
O120       Ni131   1.927       .  S
C121        C357   1.442       .  S
C121        O127   1.273       .  A
C122        C364   1.444       .  S
H123        O124   0.967       .  S
O124       Ni132   1.912       .  S
O124       Ni126   1.912       .  S
O124       Ni131   1.920       .  S
O125       Ni126   1.932       .  S
Ni126       O130   1.910       .  S
Ni126       O128   1.923       .  S
O127       Ni132   1.937       .  S
C129       C1147   1.443       .  S
C129        O130   1.267       .  A
C129        O888   1.272       .  A
C134        N135   1.356       .  A
C134        N139   1.350       .  A
C134        C351   1.431       .  S
N135        C136   1.361       .  A
C136        N137   1.365       .  A
C136        C152   1.479       .  S
N137        C138   1.362       .  A
C138        N139   1.352       .  A
C138        C353   1.435       .  S
C140        N141   1.359       .  A
C140        N145   1.358   1_455  A
C140        C347   1.443       .  S
N141        C142   1.360   1_455  A
C142        N923   1.358       .  A
C142        C350   1.440   1_655  S
N143        C144   1.359       .  A
N143        C922   1.358       .  A
C144        N925   1.360       .  A
C144        C156   1.477       .  S
N145        C924   1.360       .  A
C146        N147   1.359   1_545  A
C146        N151   1.357       .  A
C146        C346   1.441       .  S
N147        C148   1.360       .  A
C148        N149   1.358   1_565  A
C148        C343   1.438       .  S
N149        C150   1.358       .  A
C150        N151   1.359       .  A
C150        C154   1.475       .  S
C152        C153   1.407       .  A
C152        C157   1.407       .  A
C153        C154   1.407       .  A
C153        H158   1.084       .  S
C154        C155   1.402       .  A
C155        C156   1.401       .  A
C155        H159   1.084       .  S
C156        C157   1.404       .  A
C157        H160   1.084       .  S
O161        C182   1.271       .  A
O161       Ni167   1.936       .  S
O162        C171   1.263       .  A
O162       Ni185   1.902       .  S
O163       Ni167   1.922       .  S
O163       Ni185   1.914       .  S
O163       Ni179   1.908       .  S
O163        H186   0.967       .  S
C164        C362   1.434       .  S
C164        O181   1.270       .  A
C164        O173   1.274       .  A
O165        C171   1.271       .  A
O165       Ni184   1.939       .  S
O166        C168   1.269       .  A
O166       Ni184   1.914       .  S
Ni167       O170   1.927       .  S
Ni167       O172   1.911       .  S
C168        C366   1.445       .  S
C168        O178   1.271       .  A
O169        C175   1.268       .  A
O169       Ni185   1.903       .  S
O170        C175   1.273       .  A
C171        C344   1.438       .  S
O172        C174   1.268       .  A
O173       Ni184   1.928       .  S
C174        C348   1.443       .  S
C174        O180   1.272       .  A
C175        C352   1.431       .  S
H176        O177   0.967       .  S
O177       Ni185   1.906       .  S
O177       Ni179   1.915       .  S
O177       Ni184   1.922       .  S
O178       Ni179   1.935       .  S
Ni179       O183   1.904       .  S
Ni179       O181   1.909       .  S
O180       Ni185   1.936       .  S
C182        C356   1.438       .  S
C182        O183   1.265       .  A
C187        N188   1.351       .  A
C187        N192   1.358       .  A
C187        C340   1.432       .  S
N188        C189   1.352       .  A
C189        N190   1.359       .  A
C189        C341   1.433       .  S
N190        C191   1.363       .  A
C191        N192   1.362       .  A
C191        C205   1.475       .  S
C193        N194   1.356       .  A
C193        N198   1.359       .  A
C193        C335   1.441       .  S
N194        C195   1.359       .  A
C195        N196   1.359       .  A
C195        C207   1.475       .  S
N196        C197   1.359       .  A
C197        N198   1.360       .  A
C197        C337   1.440       .  S
C199        N200   1.358       .  A
C199        N204   1.356       .  A
C199        C333   1.437       .  S
N200        C201   1.359       .  A
C201        N202   1.358       .  A
C201        C331   1.437       .  S
N202        C203   1.358       .  A
C203        N204   1.358       .  A
C203        C209   1.474       .  S
C205        C206   1.406       .  A
C205        C210   1.406       .  A
C206        C207   1.404       .  A
C206        H211   1.084       .  S
C207        C208   1.402       .  A
C208        C209   1.402       .  A
C208        H212   1.084       .  S
C209        C210   1.404       .  A
C210        H213   1.084       .  S
O214        C235   1.272       .  A
O214       Ni220   1.935       .  S
O215        C224   1.265       .  A
O215       Ni628   1.906   1_545  S
O216       Ni220   1.923       .  S
O216       Ni238   1.912       .  S
O216       Ni232   1.914       .  S
O216        H239   0.966       .  S
C217        C345   1.440       .  S
C217        O226   1.271   1_655  A
C217        O624   1.265   1_545  A
O218        C224   1.270       .  A
O218       Ni237   1.930       .  S
O219        C221   1.270       .  A
O219       Ni237   1.907       .  S
Ni220       O223   1.940       .  S
Ni220       O225   1.905       .  S
C221        C354   1.436       .  S
C221        O231   1.275       .  A
O222        C228   1.265       .  A
O222       Ni238   1.902       .  S
O223        C228   1.273       .  A
C224        C338   1.439       .  S
O225        C227   1.268       .  A
O226       Ni237   1.939       .  S
C227       C1122   1.434   1_455  S
C227        O233   1.274       .  A
C228        C334   1.437       .  S
H229        O620   0.966       .  S
O230       Ni237   1.924       .  S
O230       Ni628   1.921   1_545  S
O230       Ni622   1.914   1_545  S
O230        H619   0.966   1_545  S
O231       Ni622   1.943   1_545  S
Ni232       O236   1.904       .  S
Ni232       O234   1.908   1_455  S
Ni232       O621   1.943       .  S
Ni232       O620   1.914       .  S
O233       Ni238   1.940       .  S
O234        C607   1.266       .  A
C235        C349   1.440       .  S
C235        O236   1.265       .  A
Ni238       O605   1.905       .  S
Ni238       O620   1.921       .  S
C240        N241   1.360       .  A
C240        N245   1.358       .  A
C240        C330   1.437       .  S
N241        C242   1.361       .  A
C242        N243   1.359       .  A
C242       C1038   1.477       .  S
N243        C244   1.355       .  A
C244        N245   1.356       .  A
C244        C328   1.436       .  S
C246        N247   1.358       .  A
C246        N251   1.359       .  A
C246        C324   1.437       .  S
N247        C248   1.357       .  A
C248        N249   1.357       .  A
C248        C325   1.440       .  S
N249        C250   1.360       .  A
C250        N251   1.360       .  A
C250        C652   1.477       .  S
C252        N253   1.358       .  A
C252        N257   1.357       .  A
C252        C320   1.438       .  S
N253        C254   1.358       .  A
C254        N255   1.359       .  A
C254        C321   1.438       .  S
N255        C256   1.360       .  A
C256        N257   1.359       .  A
C256        C260   1.474       .  S
C258       C1022   1.477       .  S
C258        C259   1.406       .  A
C258        C263   1.406       .  A
C259        C260   1.401       .  A
C259        H264   1.084       .  S
C260        C261   1.401       .  A
C261        C262   1.405       .  A
C261        H265   1.084       .  S
C262        C640   1.476       .  S
C262        C263   1.407       .  A
C263        H656   1.084       .  S
H266        C653   1.084       .  S
O267        C288   1.270       .  A
O267       Ni273   1.932       .  S
O268        C277   1.265       .  A
O268       Ni291   1.906       .  S
O269       Ni273   1.927       .  S
O269       Ni291   1.918       .  S
O269       Ni285   1.918       .  S
O269        H292   0.965       .  S
C270        C380   1.438       .  S
C270        O287   1.270       .  A
C270        O279   1.273       .  A
O271        C277   1.270       .  A
O271       Ni290   1.934       .  S
O272        C274   1.268       .  A
O272       Ni290   1.910       .  S
Ni273       O276   1.931       .  S
Ni273       O278   1.905       .  S
C274        C388   1.440       .  S
C274        O284   1.271       .  A
O275        C281   1.268       .  A
O275       Ni291   1.908       .  S
O276        C281   1.272       .  A
C277        C322   1.438       .  S
O278        C280   1.268       .  A
O279       Ni290   1.928       .  S
C280        C327   1.435       .  S
C280        O286   1.272       .  A
C281        C323   1.437       .  S
H282        O283   0.965       .  S
O283       Ni291   1.911       .  S
O283       Ni285   1.913       .  S
O283       Ni290   1.925       .  S
O284       Ni285   1.933       .  S
Ni285       O289   1.901       .  S
Ni285       O287   1.912       .  S
O286       Ni291   1.936       .  S
C288        C384   1.435       .  S
C288        O289   1.264       .  A
O293        C314   1.271       .  A
O293       Ni299   1.935       .  S
O294        C303   1.265       .  A
O294       Ni317   1.907       .  S
O295       Ni299   1.924       .  S
O295       Ni317   1.919       .  S
O295       Ni311   1.916       .  S
O295        H318   0.967       .  S
C296        C339   1.433       .  S
C296        O313   1.270       .  A
C296        O305   1.274       .  A
O297        C303   1.270       .  A
O297       Ni316   1.933       .  S
O298        C300   1.268       .  A
O298       Ni316   1.914       .  S
Ni299       O302   1.932       .  S
Ni299       O304   1.908       .  S
C300       C1116   1.441       .  S
C300        O310   1.269       .  A
O301        C307   1.268       .  A
O301       Ni317   1.906       .  S
O302        C307   1.273       .  A
C303       C1099   1.438       .  S
O304        C306   1.268       .  A
O305       Ni316   1.926       .  S
C306        C326   1.439       .  S
C306        O312   1.273       .  A
C307        C329   1.436       .  S
H308        O309   0.967       .  S
O309       Ni317   1.905       .  S
O309       Ni311   1.909       .  S
O309       Ni316   1.921       .  S
O310       Ni311   1.929       .  S
Ni311       O315   1.903       .  S
Ni311       O313   1.909       .  S
O312       Ni317   1.938       .  S
C314        C722   1.438       .  S
C314        O315   1.264       .  A
C319       C1083   1.438   1_455  S
C319        C320   1.207       .  T
C321        C322   1.208       .  T
C323        C324   1.207       .  T
C325        C326   1.208       .  T
C327        C328   1.206       .  T
C329        C720   1.207       .  T
C330        C719   1.207       .  T
C331        C332   1.207       .  T
C332        C704   1.437       .  S
C333        C334   1.207       .  T
C335        C336   1.209       .  T
C336       C1080   1.441   1_455  S
C337        C338   1.208       .  T
C339        C340   1.204       .  T
C341        C342   1.205       .  T
C342       C1007   1.434       .  S
C343        C734   1.207       .  T
C344        C733   1.208       .  T
C345       C1126   1.209       .  T
C346       C1125   1.209       .  T
C347        C348   1.210       .  T
C349        C350   1.208       .  T
C351        C352   1.203       .  T
C353        C354   1.206       .  T
C355        C356   1.208       .  T
C357        C358   1.210       .  T
C358        C877   1.442       .  S
C359        C360   1.208       .  T
C361        C362   1.205       .  T
C363        C364   1.211       .  T
C365        C366   1.211       .  T
C367        C909   1.443   1_455  S
C367        C368   1.211       .  T
C369        C370   1.207       .  T
C371        C372   1.208       .  T
C373        C374   1.206       .  T
C375        C420   1.442       .  S
C375        C376   1.210   1_565  T
C377        C378   1.212       .  T
C379        C380   1.207       .  T
C381        C382   1.208       .  T
C383        C384   1.206       .  T
C385        C848   1.437       .  S
C385        C386   1.207       .  T
C387        C388   1.209       .  T
C389        C390   1.207       .  T
C391        N392   1.358       .  A
C391        N396   1.360       .  A
C391        C777   1.441       .  S
N392       C1173   1.359       .  A
C393       N1172   1.359       .  A
C393        N394   1.357       .  A
C393        C411   1.476       .  S
N394       C1175   1.357       .  A
C395       N1174   1.357       .  A
C395        N396   1.360       .  A
C395        C780   1.437       .  S
C397        N398   1.357       .  A
C397        N402   1.359       .  A
C397        C776   1.437       .  S
N398        C399   1.356       .  A
C399        N400   1.356       .  A
C399        C773   1.435       .  S
N400        C401   1.358       .  A
C401        N402   1.361       .  A
C401        C413   1.472       .  S
C403        N408   1.358       .  A
C403        C772   1.439       .  S
N404        C405   1.355       .  A
C405        C769   1.438   1_545  S
N406        C407   1.363       .  A
C407        N408   1.362       .  A
C407        C409   1.480       .  S
C409        C410   1.406       .  A
C409        C414   1.405       .  A
C410        C411   1.408       .  A
C410        H415   1.084       .  S
C411        C412   1.403       .  A
C412        C413   1.401       .  A
C412        H416   1.084       .  S
C413        C414   1.404       .  A
C414        H417   1.084       .  S
C418        N419   1.360       .  A
C418        N423   1.362       .  A
C418        C768   1.447       .  S
N419        C420   1.358       .  A
C420        N421   1.357       .  A
N421        C422   1.359       .  A
C422        N423   1.364       .  A
C422        C432   1.483       .  S
C424        N425   1.355       .  A
C424        N429   1.358       .  A
C424        C761   1.438       .  S
N425        C426   1.355       .  A
C426        N427   1.358       .  A
C426        C764   1.435       .  S
N427        C428   1.361       .  A
C428        N429   1.362       .  A
C428        C430   1.473       .  S
C430        C431   1.404       .  A
C430        C435   1.404       .  A
C431        C432   1.404       .  A
C431        H436   1.084       .  S
C432        C433   1.409       .  A
C433        C434   1.409       .  A
C433        H437   1.084       .  S
C434        C443   1.482       .  S
C434        C435   1.404       .  A
C435        H438   1.084       .  S
C439        N440   1.357       .  A
C439        N444   1.357       .  A
C439        C759   1.437       .  S
N440        C441   1.358       .  A
C441        N442   1.361       .  A
C441        C758   1.443       .  S
N442        C443   1.363       .  A
C443        N444   1.359       .  A
O445        C466   1.271       .  A
O445      Ni1231   1.937   1_556  S
O446        C455   1.266       .  A
O446       Ni469   1.909       .  S
O447       Ni469   1.918   1_556  S
O447        H470   0.965       .  S
C448        C760   1.436       .  S
C448        O465   1.267       .  A
C448        O457   1.270       .  A
O449        C455   1.268       .  A
O450        C452   1.268       .  A
Ni451      O1225   1.937   1_454  S
Ni451      O1236   1.904       .  S
C452        C763   1.435       .  S
C452        O462   1.275       .  A
O453        C459   1.266       .  A
O453       Ni469   1.906       .  S
O454        C459   1.272       .  A
C455        C771   1.439       .  S
O456       C1238   1.268       .  A
O456      Ni1231   1.904       .  S
O457       Ni468   1.930       .  S
C458       C1555   1.436       .  S
C458       O1236   1.268       .  A
C458        O464   1.274       .  A
C459        C779   1.437       .  S
H460        O461   0.965   1_554  S
O461       Ni463   1.920       .  S
O461       Ni468   1.927       .  S
Ni463       O467   1.912       .  S
Ni463       O465   1.908       .  S
C466        C767   1.446       .  S
C466       O1247   1.267       .  A
O467       C1246   1.267   1_455  A
C471        N472   1.357       .  A
C471        N476   1.362       .  A
C471        C753   1.444       .  S
N472        C473   1.358       .  A
C473        N474   1.360       .  A
C473       C1271   1.480       .  S
N474        C475   1.359       .  A
C475        N476   1.363       .  A
C475        C755   1.445       .  S
C477        N482   1.358       .  A
C477        C750   1.437       .  S
N478        C479   1.355       .  A
C479        N480   1.358       .  A
C479        C751   1.436       .  S
N480        C481   1.362       .  A
C483        N484   1.356       .  A
C483        N488   1.357       .  A
C483        C745   1.439       .  S
N484        C485   1.359       .  A
C485        N486   1.362   1_455  A
C485        C493   1.475       .  S
N486        C487   1.361       .  A
C487        N488   1.359   1_655  A
C487       C1528   1.442       .  S
C489        C494   1.404       .  A
C490        C491   1.407   1_455  A
C490        H495   1.084       .  S
C491       C1253   1.480       .  S
C492        C493   1.404   1_655  A
C492       H1276   1.084       .  S
C493        C494   1.404       .  A
C494        H497   1.084       .  S
H496       C1272   1.084       .  S
O498       C1299   1.272       .  A
O498      Ni1284   1.938       .  S
O499        C508   1.266       .  A
O499       Ni522   1.908       .  S
O500       Ni504   1.920       .  S
O500       Ni522   1.916       .  S
O500       Ni516   1.920       .  S
O500        H523   0.966       .  S
C501        C766   1.441       .  S
C501        O518   1.275       .  A
C501        O510   1.274       .  A
O502        C508   1.269       .  A
O502       Ni521   1.932       .  S
O503        C505   1.267       .  A
O503       Ni521   1.908       .  S
Ni504      O1278   1.938       .  S
Ni504       O507   1.932       .  S
Ni504       O509   1.910       .  S
C505        C762   1.438       .  S
C505        O515   1.270       .  A
O506        C512   1.272       .  A
O506       Ni522   1.919       .  S
O507        C512   1.274       .  A
C508        C749   1.437       .  S
O509        C511   1.268       .  A
O510       Ni521   1.926       .  S
C511        C747   1.442       .  S
C511        O517   1.273       .  A
C512        C754   1.444       .  S
H513        O514   0.967       .  S
O514       Ni522   1.912       .  S
O514       Ni516   1.911       .  S
O514       Ni521   1.919       .  S
O515       Ni516   1.931       .  S
Ni516       O520   1.910       .  S
Ni516       O518   1.925       .  S
O517       Ni522   1.936       .  S
C519       C1537   1.443       .  S
C519       O1278   1.272       .  A
C519        O520   1.267       .  A
C524        N525   1.356       .  A
C524        N529   1.350       .  A
C524        C741   1.431       .  S
N525        C526   1.361       .  A
C526        N527   1.366       .  A
C526        C542   1.480       .  S
N527        C528   1.362       .  A
C528        N529   1.352       .  A
C528        C743   1.436       .  S
C530        N531   1.359       .  A
C530        N535   1.358   1_455  A
C530        C737   1.443       .  S
N531        C532   1.360   1_455  A
C532       N1313   1.358       .  A
C532        C740   1.439   1_655  S
N533       C1312   1.358       .  A
N533        C534   1.359       .  A
C534       N1315   1.360       .  A
C534        C546   1.477       .  S
N535       C1314   1.360       .  A
C536        N537   1.359       .  A
C536        N541   1.357       .  A
C536        C736   1.442       .  S
N537        C538   1.360       .  A
C538        N539   1.358       .  A
C538        C733   1.438       .  S
N539        C540   1.358       .  A
C540        N541   1.359       .  A
C540        C544   1.475       .  S
C542        C543   1.407       .  A
C542        C547   1.408       .  A
C543        C544   1.407       .  A
C543        H548   1.084       .  S
C544        C545   1.402       .  A
C545        C546   1.402       .  A
C545        H549   1.084       .  S
C546        C547   1.404       .  A
C547        H550   1.084       .  S
O551        C572   1.271       .  A
O551       Ni557   1.936       .  S
O552        C561   1.263       .  A
O552       Ni575   1.901       .  S
O553       Ni557   1.922       .  S
O553       Ni575   1.914       .  S
O553       Ni569   1.908       .  S
O553        H576   0.967       .  S
C554        C752   1.436       .  S
C554        O571   1.271       .  A
C554        O563   1.274       .  A
O555        C561   1.271       .  A
O555       Ni574   1.939       .  S
O556        C558   1.269       .  A
O556       Ni574   1.914       .  S
Ni557       O560   1.927       .  S
Ni557       O562   1.911       .  S
C558        C756   1.445       .  S
C558        O568   1.271       .  A
O559        C565   1.268       .  A
O559       Ni575   1.904       .  S
O560        C565   1.273       .  A
C561        C734   1.438       .  S
O562        C564   1.268       .  A
O563       Ni574   1.928       .  S
C564        C738   1.443       .  S
C564        O570   1.272       .  A
C565        C742   1.431       .  S
H566        O567   0.967       .  S
O567       Ni575   1.906       .  S
O567       Ni569   1.915       .  S
O567       Ni574   1.922       .  S
O568       Ni569   1.935       .  S
Ni569       O573   1.903       .  S
Ni569       O571   1.911       .  S
O570       Ni575   1.936       .  S
C572        C746   1.438       .  S
C572        O573   1.265       .  A
C577        N578   1.351       .  A
C577        N582   1.358       .  A
C577        C730   1.432       .  S
N578        C579   1.352       .  A
C579        N580   1.359       .  A
C579        C731   1.433       .  S
N580        C581   1.363       .  A
C581        N582   1.362       .  A
C581        C595   1.475       .  S
C583        N584   1.356       .  A
C583        N588   1.359       .  A
C583        C725   1.441       .  S
N584        C585   1.359       .  A
C585        N586   1.359       .  A
C585        C597   1.475       .  S
N586        C587   1.359       .  A
C587        N588   1.360       .  A
C587        C727   1.440       .  S
C589        N590   1.359       .  A
C589        N594   1.355       .  A
C589        C723   1.437       .  S
N590        C591   1.360       .  A
C591        N592   1.359       .  A
C591        C721   1.438   1_565  S
N592        C593   1.358       .  A
C593        N594   1.357       .  A
C593        C599   1.474       .  S
C595        C596   1.406       .  A
C595        C600   1.406       .  A
C596        C597   1.404       .  A
C596        H601   1.084       .  S
C597        C598   1.402       .  A
C598        C599   1.402       .  A
C598        H602   1.084       .  S
C599        C600   1.404       .  A
C600        H603   1.084       .  S
O604        C625   1.271       .  A
O604       Ni610   1.934       .  S
O605        C614   1.265       .  A
O606       Ni610   1.923       .  S
O606       Ni628   1.912       .  S
O606       Ni622   1.914       .  S
O606        H629   0.966       .  S
C607        C735   1.441       .  S
C607        O616   1.271   1_655  A
O608        C614   1.270       .  A
O608       Ni627   1.930       .  S
O609        C611   1.270       .  A
O609       Ni627   1.907       .  S
Ni610       O613   1.940       .  S
Ni610       O615   1.904       .  S
C611        C744   1.437       .  S
C611        O621   1.275       .  A
O612        C618   1.265       .  A
O612       Ni628   1.902       .  S
O613        C618   1.273       .  A
C614        C728   1.439       .  S
O615        C617   1.268       .  A
O616       Ni627   1.939       .  S
C617       C1512   1.433   1_455  S
C617        O623   1.274       .  A
C618        C724   1.437       .  S
O620       Ni627   1.925       .  S
Ni622       O626   1.903       .  S
Ni622       O624   1.907   1_455  S
O623       Ni628   1.939       .  S
C625        C739   1.439       .  S
C625        O626   1.265       .  A
C630        N631   1.360       .  A
C630        N635   1.358   1_545  A
C630        C720   1.437       .  S
N631        C632   1.361   1_545  A
C632        N633   1.359       .  A
C632       C1428   1.478       .  S
N633        C634   1.355       .  A
C634        N635   1.356       .  A
C634        C718   1.436       .  S
C636        N637   1.358       .  A
C636        N641   1.359       .  A
C636        C714   1.437       .  S
N637        C638   1.356       .  A
C638        N639   1.356       .  A
C638        C715   1.438       .  S
N639        C640   1.360       .  A
C640        N641   1.360       .  A
C642        N643   1.358       .  A
C642        N647   1.358       .  A
C642        C710   1.438       .  S
N643        C644   1.358       .  A
C644        N645   1.359       .  A
C644        C711   1.439       .  S
N645        C646   1.359       .  A
C646        N647   1.359       .  A
C646        C650   1.474       .  S
C648       C1412   1.478       .  S
C648        C649   1.406       .  A
C648        C653   1.407   1_565  A
C649        C650   1.401       .  A
C649        H654   1.084       .  S
C650        C651   1.401       .  A
C651        C652   1.405   1_565  A
C651        H655   1.084       .  S
C652        C653   1.408       .  A
O657        C678   1.270       .  A
O657       Ni663   1.931       .  S
O658        C667   1.265       .  A
O658       Ni681   1.906       .  S
O659       Ni663   1.927       .  S
O659       Ni681   1.918       .  S
O659       Ni675   1.920       .  S
O659        H682   0.965       .  S
C660        C770   1.438       .  S
C660        O677   1.269       .  A
C660        O669   1.273       .  A
O661        C667   1.270       .  A
O661       Ni680   1.934       .  S
O662        C664   1.268       .  A
O662       Ni680   1.910       .  S
Ni663       O666   1.932       .  S
Ni663       O668   1.905       .  S
C664        C778   1.440       .  S
C664        O674   1.271       .  A
O665        C671   1.267       .  A
O665       Ni681   1.906       .  S
O666        C671   1.271       .  A
C667        C712   1.438       .  S
O668        C670   1.268       .  A
O669       Ni680   1.929       .  S
C670        C717   1.436       .  S
C670        O676   1.273       .  A
C671        C713   1.436       .  S
H672        O673   0.965       .  S
O673       Ni681   1.910       .  S
O673       Ni675   1.913       .  S
O673       Ni680   1.925       .  S
O674       Ni675   1.933       .  S
Ni675       O679   1.901       .  S
Ni675       O677   1.912       .  S
O676       Ni681   1.939       .  S
C678        C774   1.435       .  S
C678        O679   1.264       .  A
O683        C704   1.270       .  A
O683       Ni689   1.935       .  S
O684        C693   1.265       .  A
O684       Ni707   1.907       .  S
O685       Ni689   1.922       .  S
O685       Ni707   1.918       .  S
O685       Ni701   1.914       .  S
O685        H708   0.967       .  S
C686        C729   1.433       .  S
C686        O703   1.271       .  A
C686        O695   1.274       .  A
O687        C693   1.270       .  A
O687       Ni706   1.934       .  S
O688        C690   1.268       .  A
O688       Ni706   1.915       .  S
Ni689       O692   1.930       .  S
Ni689       O694   1.908       .  S
C690       C1506   1.441       .  S
C690        O700   1.269       .  A
O691        C697   1.269       .  A
O691       Ni707   1.908       .  S
O692        C697   1.273       .  A
C693       C1489   1.438       .  S
O694        C696   1.268       .  A
O695       Ni706   1.926       .  S
C696        C716   1.438       .  S
C696        O702   1.272       .  A
C697        C719   1.436       .  S
H698        O699   0.967       .  S
O699       Ni707   1.906       .  S
O699       Ni701   1.908       .  S
O699       Ni706   1.919       .  S
O700       Ni701   1.928       .  S
Ni701       O705   1.903       .  S
Ni701       O703   1.910       .  S
O702       Ni707   1.934       .  S
C704        O705   1.264       .  A
C709       C1473   1.438   1_455  S
C709        C710   1.207       .  T
C711        C712   1.208       .  T
C713        C714   1.207       .  T
C715        C716   1.208       .  T
C717        C718   1.206       .  T
C721        C722   1.207       .  T
C723        C724   1.207       .  T
C725        C726   1.209       .  T
C726       C1470   1.441   1_455  S
C727        C728   1.208       .  T
C729        C730   1.204       .  T
C731        C732   1.205       .  T
C732       C1397   1.433       .  S
C735       C1516   1.209       .  T
C736       C1515   1.209       .  T
C737        C738   1.210       .  T
C739        C740   1.208       .  T
C741        C742   1.203       .  T
C743        C744   1.207       .  T
C745        C746   1.208       .  T
C747        C748   1.210       .  T
C748       C1267   1.442       .  S
C749        C750   1.207       .  T
C751        C752   1.206       .  T
C753        C754   1.211       .  T
C755        C756   1.212       .  T
C757       C1299   1.443   1_455  S
C757        C758   1.210       .  T
C759        C760   1.207       .  T
C761        C762   1.208       .  T
C763        C764   1.206       .  T
C765        C766   1.210       .  T
C767        C768   1.213       .  T
C769        C770   1.208       .  T
C771        C772   1.208       .  T
C773        C774   1.206       .  T
C775       C1238   1.436       .  S
C775        C776   1.207       .  T
C777        C778   1.209       .  T
C779        C780   1.207       .  T
C781        N782   1.358       .  A
C781        N786   1.360       .  A
C781       C1167   1.441       .  S
C783        N784   1.357       .  A
C783        C801   1.476   1_455  S
C785        N786   1.360       .  A
C785       C1170   1.437       .  S
C787        N788   1.357       .  A
C787        N792   1.359       .  A
C787       C1166   1.437   1_655  S
N788        C789   1.356       .  A
C789        N790   1.356       .  A
C789       C1163   1.436       .  S
N790        C791   1.358       .  A
C791        N792   1.361       .  A
C791        C803   1.473       .  S
C793       N1184   1.355       .  A
C793        N798   1.358       .  A
C793       C1162   1.440       .  S
N794       C1183   1.355       .  A
N794        C795   1.355       .  A
C795       N1186   1.360       .  A
C795       C1159   1.438       .  S
N796       C1185   1.360       .  A
N796        C797   1.363       .  A
C797        N798   1.363       .  A
C797        C799   1.480       .  S
C799        C800   1.407       .  A
C799        C804   1.405       .  A
C800        C801   1.408       .  A
C800        H805   1.084       .  S
C801        C802   1.403       .  A
C802        C803   1.401       .  A
C802        H806   1.084   1_655  S
C803        C804   1.404       .  A
C804        H807   1.084       .  S
C808        N809   1.359       .  A
C808        N813   1.362       .  A
C808       C1158   1.446       .  S
N809        C810   1.358       .  A
C810        N811   1.357       .  A
C810       C1545   1.442       .  S
N811        C812   1.360       .  A
C812        N813   1.364       .  A
C812        C822   1.483       .  S
C814        N815   1.355       .  A
C814        N819   1.359       .  A
C814       C1151   1.439       .  S
N815        C816   1.355       .  A
C816        N817   1.357       .  A
C816       C1154   1.435       .  S
N817        C818   1.361       .  A
C818        N819   1.362       .  A
C818        C820   1.473       .  S
C820        C821   1.404       .  A
C820        C825   1.405       .  A
C821        C822   1.404       .  A
C821        H826   1.084       .  S
C822        C823   1.409       .  A
C823        C824   1.409       .  A
C823        H827   1.084       .  S
C824        C833   1.483       .  S
C824        C825   1.404       .  A
C825        H828   1.084       .  S
C829        N830   1.357       .  A
C829        N834   1.357       .  A
C829       C1149   1.438       .  S
N830        C831   1.358       .  A
C831        N832   1.361       .  A
C831       C1148   1.443       .  S
N832        C833   1.363       .  A
C833        N834   1.359       .  A
O835        C856   1.271       .  A
O836        C845   1.266       .  A
O836       Ni859   1.909       .  S
O837      Ni1231   1.925   1_546  S
O837       Ni859   1.918   1_556  S
O837      Ni1243   1.916   1_545  S
O837        H860   0.965       .  S
C838       C1150   1.436       .  S
C838        O855   1.267       .  A
C838        O847   1.270       .  A
O839        C845   1.268       .  A
O839      Ni1248   1.928   1_544  S
O840        C842   1.268       .  A
O840      Ni1248   1.902   1_545  S
Ni841      O1234   1.935       .  S
Ni841      O1227   1.926   1_554  S
C842       C1153   1.435       .  S
C842        O852   1.275       .  A
O843        C849   1.266       .  A
O843       Ni859   1.906       .  S
O844        C849   1.272       .  A
O844      Ni1231   1.935   1_545  S
C845       C1161   1.440       .  S
O847       Ni858   1.930       .  S
C848        O854   1.275       .  A
C849       C1169   1.437       .  S
H850        O851   0.965   1_554  S
O851      Ni1249   1.919   1_556  S
O851       Ni853   1.919       .  S
O851       Ni858   1.927       .  S
O852      Ni1243   1.942   1_545  S
Ni853      O1242   1.942       .  S
Ni853       O857   1.911       .  S
Ni853       O855   1.909       .  S
Ni853      O1227   1.916       .  S
O854      Ni1249   1.943       .  S
C856       C1157   1.445       .  S
Ni858      O1229   1.927   1_556  S
Ni858      O1230   1.903       .  S
Ni859      O1244   1.942   1_545  S
Ni859      O1241   1.919   1_544  S
C861        N862   1.357       .  A
C861        N866   1.362       .  A
C861       C1143   1.444       .  S
N862        C863   1.358       .  A
C863        N864   1.359       .  A
N864        C865   1.359       .  A
C865        N866   1.362       .  A
C865       C1145   1.445       .  S
C867       N1258   1.355       .  A
C867        N872   1.359       .  A
C867       C1140   1.438   1_565  S
N868       C1257   1.354       .  A
N868        C869   1.354       .  A
C869        N870   1.358       .  A
C869       C1141   1.435       .  S
N870        C871   1.361       .  A
C871       N1262   1.362       .  A
C871       C1269   1.479       .  S
N872       C1261   1.363       .  A
C873        N874   1.356       .  A
C873        N878   1.357       .  A
C873       C1135   1.439       .  S
N874        C875   1.359       .  A
C875        N876   1.362       .  A
C875        C883   1.475       .  S
N876        C877   1.361       .  A
C877        N878   1.359       .  A
C879       C1261   1.480       .  S
C879       C1270   1.405       .  A
C879        C884   1.405   1_565  A
C880       C1269   1.405       .  A
C880        C881   1.406       .  A
C880        H885   1.084       .  S
C881       C1272   1.407       .  A
C882       C1271   1.407       .  A
C882        C883   1.404   1_565  A
C883        C884   1.404       .  A
C884        H887   1.084       .  S
O889        C898   1.267       .  A
O889       Ni912   1.909       .  S
O890       Ni894   1.922       .  S
O890       Ni912   1.918       .  S
O890       Ni906   1.921       .  S
O890        H913   0.966       .  S
C891       C1156   1.442       .  S
C891        O908   1.275       .  A
C891        O900   1.274       .  A
O892        C898   1.269       .  A
O892       Ni911   1.932       .  S
O893        C895   1.267       .  A
O893       Ni911   1.908       .  S
Ni894       O897   1.932       .  S
Ni894       O899   1.910       .  S
C895       C1152   1.439       .  S
C895        O905   1.270       .  A
O896        C902   1.272       .  A
O896       Ni912   1.918       .  S
O897        C902   1.274       .  A
C898       C1139   1.438       .  S
O899        C901   1.269       .  A
O900       Ni911   1.927       .  S
C901       C1137   1.442       .  S
C901        O907   1.273       .  A
C902       C1144   1.444       .  S
H903        O904   0.967       .  S
O904       Ni912   1.912       .  S
O904       Ni906   1.912       .  S
O904       Ni911   1.920       .  S
O905       Ni906   1.932       .  S
Ni906       O910   1.910       .  S
Ni906       O908   1.923       .  S
O907       Ni912   1.937       .  S
C909        O910   1.267       .  A
C914        N915   1.356       .  A
C914        N919   1.350       .  A
C914       C1131   1.431       .  S
N915        C916   1.361       .  A
C916        N917   1.365       .  A
C916        C932   1.479       .  S
N917        C918   1.362       .  A
C918        N919   1.352       .  A
C918       C1133   1.435       .  S
C920        N921   1.359       .  A
C920        N925   1.358       .  A
C920       C1127   1.443       .  S
N921        C922   1.360       .  A
C922       C1130   1.440       .  S
N923        C924   1.359       .  A
C924        C936   1.477       .  S
C926        N927   1.359   1_545  A
C926        N931   1.357       .  A
C926       C1126   1.441       .  S
N927        C928   1.360       .  A
C928        N929   1.358   1_565  A
C928       C1123   1.438       .  S
N929        C930   1.358       .  A
C930        N931   1.359       .  A
C930        C934   1.475       .  S
C932        C933   1.407       .  A
C932        C937   1.407       .  A
C933        C934   1.407       .  A
C933        H938   1.084       .  S
C934        C935   1.402       .  A
C935        C936   1.401       .  A
C935        H939   1.084       .  S
C936        C937   1.404       .  A
C937        H940   1.084       .  S
O941        C962   1.271       .  A
O941       Ni947   1.936       .  S
O942        C951   1.263       .  A
O942       Ni965   1.902       .  S
O943       Ni947   1.922       .  S
O943       Ni965   1.914       .  S
O943       Ni959   1.908       .  S
O943        H966   0.967       .  S
C944       C1142   1.434       .  S
C944        O961   1.270       .  A
C944        O953   1.274       .  A
O945        C951   1.271       .  A
O945       Ni964   1.939       .  S
O946        C948   1.269       .  A
O946       Ni964   1.914       .  S
Ni947       O950   1.927       .  S
Ni947       O952   1.911       .  S
C948       C1146   1.445       .  S
C948        O958   1.271       .  A
O949        C955   1.268       .  A
O949       Ni965   1.903       .  S
O950        C955   1.273       .  A
C951       C1124   1.438       .  S
O952        C954   1.268       .  A
O953       Ni964   1.928       .  S
C954       C1128   1.443       .  S
C954        O960   1.272       .  A
C955       C1132   1.431       .  S
H956        O957   0.967       .  S
O957       Ni965   1.906       .  S
O957       Ni959   1.915       .  S
O957       Ni964   1.922       .  S
O958       Ni959   1.935       .  S
Ni959       O963   1.904       .  S
Ni959       O961   1.909       .  S
O960       Ni965   1.936       .  S
C962       C1136   1.438       .  S
C962        O963   1.265       .  A
C967        N968   1.351       .  A
C967        N972   1.358       .  A
C967       C1120   1.432       .  S
N968        C969   1.352       .  A
C969        N970   1.359       .  A
C969       C1121   1.433       .  S
N970        C971   1.363       .  A
C971        N972   1.362       .  A
C971        C985   1.475       .  S
C973        N974   1.356       .  A
C973        N978   1.359       .  A
C973       C1115   1.441       .  S
N974        C975   1.359       .  A
C975        N976   1.359       .  A
C975        C987   1.475       .  S
N976        C977   1.359       .  A
C977        N978   1.360       .  A
C977       C1117   1.440       .  S
C979        N980   1.358       .  A
C979        N984   1.356       .  A
C979       C1113   1.437       .  S
N980        C981   1.359       .  A
C981        N982   1.358       .  A
C981       C1111   1.437       .  S
N982        C983   1.358       .  A
C983        N984   1.358       .  A
C983        C989   1.474       .  S
C985        C986   1.406       .  A
C985        C990   1.406       .  A
C986        C987   1.404       .  A
C986        H991   1.084       .  S
C987        C988   1.402       .  A
C988        C989   1.402       .  A
C988        H992   1.084       .  S
C989        C990   1.404       .  A
C990        H993   1.084       .  S
O994       C1015   1.272       .  A
O994      Ni1000   1.935       .  S
O995       C1004   1.265       .  A
O995      Ni1408   1.906   1_545  S
O996      Ni1000   1.923       .  S
O996      Ni1018   1.912       .  S
O996      Ni1012   1.914       .  S
O996       H1019   0.966       .  S
C997       C1125   1.440       .  S
C997       O1404   1.265   1_545  A
C997       O1006   1.271       .  A
O998       C1004   1.270       .  A
O998      Ni1017   1.930       .  S
O999       C1001   1.270       .  A
O999      Ni1017   1.907       .  S
Ni1000     O1003   1.940       .  S
Ni1000     O1005   1.905       .  S
C1001      C1134   1.436       .  S
C1001      O1011   1.275       .  A
O1002      C1008   1.265       .  A
O1002     Ni1018   1.902       .  S
O1003      C1008   1.273       .  A
C1004      C1118   1.439       .  S
O1005      C1007   1.268       .  A
O1006     Ni1017   1.939       .  S
C1007      O1013   1.274       .  A
C1008      C1114   1.437       .  S
H1009      O1400   0.966       .  S
O1010     Ni1408   1.921   1_545  S
O1010     Ni1402   1.914   1_545  S
O1010     Ni1017   1.924       .  S
O1010      H1399   0.966   1_545  S
O1011     Ni1402   1.943   1_545  S
Ni1012     O1401   1.943       .  S
Ni1012     O1016   1.904       .  S
Ni1012     O1014   1.908       .  S
Ni1012     O1400   1.914       .  S
O1013     Ni1018   1.940       .  S
O1014      C1387   1.266       .  A
C1015      C1129   1.440       .  S
C1015      O1016   1.265       .  A
Ni1018     O1385   1.905       .  S
Ni1018     O1400   1.921       .  S
C1020      N1021   1.360   1_655  A
C1020      N1025   1.358       .  A
C1020      C1110   1.437       .  S
N1021      C1022   1.361       .  A
C1022      N1023   1.359   1_455  A
N1023      C1024   1.355       .  A
C1024      N1025   1.356       .  A
C1024      C1108   1.436       .  S
C1026      N1027   1.358       .  A
C1026      N1031   1.359       .  A
C1026      C1104   1.437       .  S
N1027      C1028   1.357       .  A
C1028      N1029   1.357       .  A
C1028      C1105   1.440       .  S
N1029      C1030   1.360       .  A
C1030      N1031   1.360       .  A
C1030      C1432   1.477       .  S
C1032      N1033   1.358       .  A
C1032      N1037   1.357       .  A
C1032      C1100   1.438       .  S
N1033      C1034   1.358       .  A
C1034      N1035   1.359       .  A
C1034      C1101   1.438       .  S
N1035      C1036   1.360       .  A
C1036      N1037   1.359       .  A
C1036      C1040   1.474       .  S
C1038      C1039   1.406       .  A
C1038      C1043   1.406       .  A
C1039      C1040   1.401       .  A
C1039      H1044   1.084       .  S
C1040      C1041   1.401       .  A
C1041      C1042   1.405       .  A
C1041      H1045   1.084       .  S
C1042      C1420   1.476       .  S
C1042      C1043   1.407       .  A
C1043      H1436   1.084       .  S
H1046      C1433   1.084       .  S
O1047      C1068   1.270       .  A
O1047     Ni1053   1.932       .  S
O1048      C1057   1.265       .  A
O1048     Ni1071   1.906       .  S
O1049     Ni1053   1.927       .  S
O1049     Ni1071   1.918       .  S
O1049     Ni1065   1.918       .  S
O1049      H1072   0.965       .  S
C1050      C1160   1.438       .  S
C1050      O1067   1.270       .  A
C1050      O1059   1.273       .  A
O1051      C1057   1.270       .  A
O1051     Ni1070   1.934       .  S
O1052      C1054   1.268       .  A
O1052     Ni1070   1.910       .  S
Ni1053     O1056   1.931       .  S
Ni1053     O1058   1.905       .  S
C1054      C1168   1.440       .  S
C1054      O1064   1.271       .  A
O1055      C1061   1.268       .  A
O1055     Ni1071   1.908       .  S
O1056      C1061   1.272       .  A
C1057      C1102   1.438       .  S
O1058      C1060   1.268       .  A
O1059     Ni1070   1.928       .  S
C1060      C1107   1.435       .  S
C1060      O1066   1.272       .  A
C1061      C1103   1.437       .  S
H1062      O1063   0.965       .  S
O1063     Ni1071   1.911       .  S
O1063     Ni1065   1.913       .  S
O1063     Ni1070   1.925       .  S
O1064     Ni1065   1.933       .  S
Ni1065     O1069   1.901       .  S
Ni1065     O1067   1.912       .  S
O1066     Ni1071   1.936       .  S
C1068      C1164   1.435       .  S
C1068      O1069   1.264       .  A
O1073      C1094   1.271       .  A
O1073     Ni1079   1.935       .  S
O1074      C1083   1.265       .  A
O1074     Ni1097   1.907       .  S
O1075     Ni1079   1.924       .  S
O1075     Ni1097   1.919       .  S
O1075     Ni1091   1.916       .  S
O1075      H1098   0.967       .  S
C1076      C1119   1.433       .  S
C1076      O1093   1.270       .  A
C1076      O1085   1.274       .  A
O1077      C1083   1.270   1_455  A
O1077     Ni1096   1.933   1_455  S
O1078      C1080   1.268   1_455  A
O1078     Ni1096   1.914   1_455  S
Ni1079     O1082   1.932       .  S
Ni1079     O1084   1.908       .  S
C1080      O1090   1.269       .  A
O1081      C1087   1.268       .  A
O1081     Ni1097   1.906       .  S
O1082      C1087   1.273       .  A
O1084      C1086   1.268       .  A
O1085     Ni1096   1.926       .  S
C1086      C1106   1.439       .  S
C1086      O1092   1.273       .  A
C1087      C1109   1.436       .  S
H1088      O1089   0.967       .  S
O1089     Ni1097   1.905       .  S
O1089     Ni1091   1.909       .  S
O1089     Ni1096   1.921       .  S
O1090     Ni1091   1.929       .  S
Ni1091     O1095   1.903       .  S
Ni1091     O1093   1.909       .  S
O1092     Ni1097   1.938       .  S
C1094      C1502   1.438       .  S
C1094      O1095   1.264       .  A
C1099      C1100   1.207       .  T
C1101      C1102   1.208       .  T
C1103      C1104   1.207       .  T
C1105      C1106   1.208       .  T
C1107      C1108   1.206       .  T
C1109      C1500   1.207       .  T
C1110      C1499   1.207       .  T
C1111      C1112   1.207       .  T
C1112      C1484   1.437       .  S
C1113      C1114   1.207       .  T
C1115      C1116   1.209       .  T
C1117      C1118   1.208       .  T
C1119      C1120   1.204       .  T
C1121      C1122   1.205       .  T
C1123      C1514   1.207       .  T
C1124      C1513   1.208       .  T
C1127      C1128   1.210       .  T
C1129      C1130   1.208       .  T
C1131      C1132   1.203       .  T
C1133      C1134   1.206       .  T
C1135      C1136   1.208       .  T
C1137      C1138   1.210       .  T
C1139      C1140   1.208       .  T
C1141      C1142   1.205       .  T
C1143      C1144   1.211       .  T
C1145      C1146   1.211       .  T
C1147      C1148   1.211       .  T
C1149      C1150   1.207       .  T
C1151      C1152   1.208       .  T
C1153      C1154   1.206       .  T
C1155      C1200   1.442       .  S
C1155      C1156   1.210   1_565  T
C1157      C1158   1.212       .  T
C1159      C1160   1.207       .  T
C1161      C1162   1.208       .  T
C1163      C1164   1.206       .  T
C1165      C1166   1.207       .  T
C1167      C1168   1.209       .  T
C1169      C1170   1.207       .  T
C1171      N1172   1.358       .  A
C1171      N1176   1.360       .  A
C1171      C1557   1.441       .  S
C1173      N1174   1.357       .  A
C1173      C1191   1.476   1_455  S
C1175      N1176   1.360       .  A
C1175      C1560   1.437       .  S
C1177      N1178   1.357       .  A
C1177      N1182   1.359       .  A
C1177      C1556   1.437   1_655  S
N1178      C1179   1.356       .  A
C1179      N1180   1.356       .  A
C1179      C1553   1.435       .  S
N1180      C1181   1.358       .  A
C1181      N1182   1.361       .  A
C1181      C1193   1.472       .  S
C1183      N1188   1.358       .  A
C1183      C1552   1.439       .  S
N1184      C1185   1.355       .  A
C1185      C1549   1.438   1_545  S
N1186      C1187   1.363       .  A
C1187      N1188   1.362       .  A
C1187      C1189   1.480       .  S
C1189      C1190   1.406       .  A
C1189      C1194   1.405       .  A
C1190      C1191   1.408       .  A
C1190      H1195   1.084       .  S
C1191      C1192   1.403       .  A
C1192      C1193   1.401       .  A
C1192      H1196   1.084   1_655  S
C1193      C1194   1.404       .  A
C1194      H1197   1.084       .  S
C1198      N1199   1.360       .  A
C1198      N1203   1.362       .  A
C1198      C1548   1.447       .  S
N1199      C1200   1.358       .  A
C1200      N1201   1.357       .  A
N1201      C1202   1.359       .  A
C1202      N1203   1.364       .  A
C1202      C1212   1.483       .  S
C1204      N1205   1.355       .  A
C1204      N1209   1.358       .  A
C1204      C1541   1.438       .  S
N1205      C1206   1.355       .  A
C1206      N1207   1.358       .  A
C1206      C1544   1.435       .  S
N1207      C1208   1.361       .  A
C1208      N1209   1.362       .  A
C1208      C1210   1.473       .  S
C1210      C1211   1.404       .  A
C1210      C1215   1.404       .  A
C1211      C1212   1.404       .  A
C1211      H1216   1.084       .  S
C1212      C1213   1.409       .  A
C1213      C1214   1.409       .  A
C1213      H1217   1.084       .  S
C1214      C1223   1.482       .  S
C1214      C1215   1.404       .  A
C1215      H1218   1.084       .  S
C1219      N1220   1.357       .  A
C1219      N1224   1.357       .  A
C1219      C1539   1.437       .  S
N1220      C1221   1.358       .  A
C1221      N1222   1.361       .  A
C1221      C1538   1.443       .  S
N1222      C1223   1.363       .  A
C1223      N1224   1.359       .  A
O1225      C1246   1.271       .  A
O1226      C1235   1.266       .  A
O1226     Ni1249   1.909       .  S
O1227     Ni1249   1.918   1_556  S
O1227      H1250   0.965       .  S
C1228      C1540   1.436       .  S
C1228      O1245   1.267       .  A
C1228      O1237   1.270       .  A
O1229      C1235   1.268       .  A
O1230      C1232   1.268       .  A
C1232      C1543   1.435       .  S
C1232      O1242   1.275       .  A
O1233      C1239   1.266       .  A
O1233     Ni1249   1.906       .  S
O1234      C1239   1.272       .  A
C1235      C1551   1.439       .  S
O1237     Ni1248   1.930       .  S
C1238      O1244   1.274       .  A
C1239      C1559   1.437       .  S
H1240      O1241   0.965   1_554  S
O1241     Ni1243   1.920       .  S
O1241     Ni1248   1.927       .  S
Ni1243     O1247   1.912       .  S
Ni1243     O1245   1.908       .  S
C1246      C1547   1.446       .  S
C1251      N1252   1.357       .  A
C1251      N1256   1.362       .  A
C1251      C1533   1.444       .  S
N1252      C1253   1.358       .  A
C1253      N1254   1.360       .  A
N1254      C1255   1.359       .  A
C1255      N1256   1.363       .  A
C1255      C1535   1.445       .  S
C1257      N1262   1.358       .  A
C1257      C1530   1.437       .  S
N1258      C1259   1.355       .  A
C1259      N1260   1.358       .  A
C1259      C1531   1.436       .  S
N1260      C1261   1.362       .  A
C1263      N1264   1.356       .  A
C1263      N1268   1.357       .  A
C1263      C1525   1.439       .  S
N1264      C1265   1.359       .  A
C1265      N1266   1.362       .  A
C1265      C1273   1.475       .  S
N1266      C1267   1.361       .  A
C1267      N1268   1.359       .  A
C1269      C1274   1.404       .  A
C1270      C1271   1.407       .  A
C1270      H1275   1.084       .  S
C1272      C1273   1.404       .  A
C1273      C1274   1.404       .  A
C1274      H1277   1.084       .  S
O1279      C1288   1.266       .  A
O1279     Ni1302   1.908       .  S
O1280     Ni1284   1.920       .  S
O1280     Ni1302   1.916       .  S
O1280     Ni1296   1.920       .  S
O1280      H1303   0.966       .  S
C1281      C1546   1.441       .  S
C1281      O1298   1.275       .  A
C1281      O1290   1.274       .  A
O1282      C1288   1.269       .  A
O1282     Ni1301   1.932       .  S
O1283      C1285   1.267       .  A
O1283     Ni1301   1.908       .  S
Ni1284     O1287   1.932       .  S
Ni1284     O1289   1.910       .  S
C1285      C1542   1.438       .  S
C1285      O1295   1.270       .  A
O1286      C1292   1.272       .  A
O1286     Ni1302   1.919       .  S
O1287      C1292   1.274       .  A
C1288      C1529   1.437       .  S
O1289      C1291   1.268       .  A
O1290     Ni1301   1.926       .  S
C1291      C1527   1.442       .  S
C1291      O1297   1.273       .  A
C1292      C1534   1.444       .  S
H1293      O1294   0.967       .  S
O1294     Ni1302   1.912       .  S
O1294     Ni1296   1.911       .  S
O1294     Ni1301   1.919       .  S
O1295     Ni1296   1.931       .  S
Ni1296     O1300   1.910       .  S
Ni1296     O1298   1.925       .  S
O1297     Ni1302   1.936       .  S
C1299      O1300   1.267       .  A
C1304      N1305   1.356       .  A
C1304      N1309   1.350       .  A
C1304      C1521   1.431       .  S
N1305      C1306   1.361       .  A
C1306      N1307   1.366       .  A
C1306      C1322   1.480       .  S
N1307      C1308   1.362       .  A
C1308      N1309   1.352       .  A
C1308      C1523   1.436       .  S
C1310      N1311   1.359       .  A
C1310      N1315   1.358       .  A
C1310      C1517   1.443       .  S
N1311      C1312   1.360       .  A
C1312      C1520   1.439       .  S
N1313      C1314   1.359       .  A
C1314      C1326   1.477       .  S
C1316      N1317   1.359       .  A
C1316      N1321   1.357       .  A
C1316      C1516   1.442       .  S
N1317      C1318   1.360       .  A
C1318      N1319   1.358       .  A
C1318      C1513   1.438       .  S
N1319      C1320   1.358       .  A
C1320      N1321   1.359       .  A
C1320      C1324   1.475       .  S
C1322      C1323   1.407       .  A
C1322      C1327   1.408       .  A
C1323      C1324   1.407       .  A
C1323      H1328   1.084       .  S
C1324      C1325   1.402       .  A
C1325      C1326   1.402       .  A
C1325      H1329   1.084       .  S
C1326      C1327   1.404       .  A
C1327      H1330   1.084       .  S
O1331      C1352   1.271       .  A
O1331     Ni1337   1.936       .  S
O1332      C1341   1.263       .  A
O1332     Ni1355   1.901       .  S
O1333     Ni1337   1.922       .  S
O1333     Ni1355   1.914       .  S
O1333     Ni1349   1.908       .  S
O1333      H1356   0.967       .  S
C1334      C1532   1.436       .  S
C1334      O1351   1.271       .  A
C1334      O1343   1.274       .  A
O1335      C1341   1.271       .  A
O1335     Ni1354   1.939       .  S
O1336      C1338   1.269       .  A
O1336     Ni1354   1.914       .  S
Ni1337     O1340   1.927       .  S
Ni1337     O1342   1.911       .  S
C1338      C1536   1.445       .  S
C1338      O1348   1.271       .  A
O1339      C1345   1.268       .  A
O1339     Ni1355   1.904       .  S
O1340      C1345   1.273       .  A
C1341      C1514   1.438       .  S
O1342      C1344   1.268       .  A
O1343     Ni1354   1.928       .  S
C1344      C1518   1.443       .  S
C1344      O1350   1.272       .  A
C1345      C1522   1.431       .  S
H1346      O1347   0.967       .  S
O1347     Ni1355   1.906       .  S
O1347     Ni1349   1.915       .  S
O1347     Ni1354   1.922       .  S
O1348     Ni1349   1.935       .  S
Ni1349     O1353   1.903       .  S
Ni1349     O1351   1.911       .  S
O1350     Ni1355   1.936       .  S
C1352      C1526   1.438       .  S
C1352      O1353   1.265       .  A
C1357      N1358   1.351       .  A
C1357      N1362   1.358       .  A
C1357      C1510   1.432       .  S
N1358      C1359   1.352       .  A
C1359      N1360   1.359       .  A
C1359      C1511   1.433       .  S
N1360      C1361   1.363       .  A
C1361      N1362   1.362       .  A
C1361      C1375   1.475       .  S
C1363      N1364   1.356       .  A
C1363      N1368   1.359       .  A
C1363      C1505   1.441       .  S
N1364      C1365   1.359       .  A
C1365      N1366   1.359       .  A
C1365      C1377   1.475       .  S
N1366      C1367   1.359       .  A
C1367      N1368   1.360       .  A
C1367      C1507   1.440       .  S
C1369      N1370   1.359       .  A
C1369      N1374   1.355       .  A
C1369      C1503   1.437       .  S
N1370      C1371   1.360       .  A
C1371      N1372   1.359       .  A
C1371      C1501   1.438   1_565  S
N1372      C1373   1.358       .  A
C1373      N1374   1.357       .  A
C1373      C1379   1.474       .  S
C1375      C1376   1.406       .  A
C1375      C1380   1.406       .  A
C1376      C1377   1.404       .  A
C1376      H1381   1.084       .  S
C1377      C1378   1.402       .  A
C1378      C1379   1.402       .  A
C1378      H1382   1.084       .  S
C1379      C1380   1.404       .  A
C1380      H1383   1.084       .  S
O1384      C1405   1.271       .  A
O1384     Ni1390   1.934       .  S
O1385      C1394   1.265       .  A
O1386     Ni1390   1.923       .  S
O1386     Ni1408   1.912       .  S
O1386     Ni1402   1.914       .  S
O1386      H1409   0.966       .  S
C1387      C1515   1.441       .  S
C1387      O1396   1.271       .  A
O1388      C1394   1.270       .  A
O1388     Ni1407   1.930       .  S
O1389      C1391   1.270       .  A
O1389     Ni1407   1.907       .  S
Ni1390     O1393   1.940       .  S
Ni1390     O1395   1.904       .  S
C1391      C1524   1.437       .  S
C1391      O1401   1.275       .  A
O1392      C1398   1.265       .  A
O1392     Ni1408   1.902       .  S
O1393      C1398   1.273       .  A
C1394      C1508   1.439       .  S
O1395      C1397   1.268       .  A
O1396     Ni1407   1.939       .  S
C1397      O1403   1.274       .  A
C1398      C1504   1.437       .  S
O1400     Ni1407   1.925       .  S
Ni1402     O1406   1.903       .  S
Ni1402     O1404   1.907       .  S
O1403     Ni1408   1.939       .  S
C1405      C1519   1.439       .  S
C1405      O1406   1.265       .  A
C1410      N1411   1.360   1_655  A
C1410      N1415   1.358   1_545  A
C1410      C1500   1.437       .  S
N1411      C1412   1.361   1_545  A
C1412      N1413   1.359   1_455  A
N1413      C1414   1.355       .  A
C1414      N1415   1.356       .  A
C1414      C1498   1.436       .  S
C1416      N1417   1.358       .  A
C1416      N1421   1.359       .  A
C1416      C1494   1.437       .  S
N1417      C1418   1.356       .  A
C1418      N1419   1.356       .  A
C1418      C1495   1.438       .  S
N1419      C1420   1.360       .  A
C1420      N1421   1.360       .  A
C1422      N1423   1.358       .  A
C1422      N1427   1.358       .  A
C1422      C1490   1.438       .  S
N1423      C1424   1.358       .  A
C1424      N1425   1.359       .  A
C1424      C1491   1.439       .  S
N1425      C1426   1.359       .  A
C1426      N1427   1.359       .  A
C1426      C1430   1.474       .  S
C1428      C1429   1.406       .  A
C1428      C1433   1.407   1_565  A
C1429      C1430   1.401       .  A
C1429      H1434   1.084       .  S
C1430      C1431   1.401       .  A
C1431      C1432   1.405   1_565  A
C1431      H1435   1.084       .  S
C1432      C1433   1.408       .  A
O1437      C1458   1.270       .  A
O1437     Ni1443   1.931       .  S
O1438      C1447   1.265       .  A
O1438     Ni1461   1.906       .  S
O1439     Ni1443   1.927       .  S
O1439     Ni1461   1.918       .  S
O1439     Ni1455   1.920       .  S
O1439      H1462   0.965       .  S
C1440      C1550   1.438       .  S
C1440      O1457   1.269       .  A
C1440      O1449   1.273       .  A
O1441      C1447   1.270       .  A
O1441     Ni1460   1.934       .  S
O1442      C1444   1.268       .  A
O1442     Ni1460   1.910       .  S
Ni1443     O1446   1.932       .  S
Ni1443     O1448   1.905       .  S
C1444      C1558   1.440       .  S
C1444      O1454   1.271       .  A
O1445      C1451   1.267       .  A
O1445     Ni1461   1.906       .  S
O1446      C1451   1.271       .  A
C1447      C1492   1.438       .  S
O1448      C1450   1.268       .  A
O1449     Ni1460   1.929       .  S
C1450      C1497   1.436       .  S
C1450      O1456   1.273       .  A
C1451      C1493   1.436       .  S
H1452      O1453   0.965       .  S
O1453     Ni1461   1.910       .  S
O1453     Ni1455   1.913       .  S
O1453     Ni1460   1.925       .  S
O1454     Ni1455   1.933       .  S
Ni1455     O1459   1.901       .  S
Ni1455     O1457   1.912       .  S
O1456     Ni1461   1.939       .  S
C1458      C1554   1.435       .  S
C1458      O1459   1.264       .  A
O1463      C1484   1.270       .  A
O1463     Ni1469   1.935       .  S
O1464      C1473   1.265       .  A
O1464     Ni1487   1.907       .  S
O1465     Ni1469   1.922       .  S
O1465     Ni1487   1.918       .  S
O1465     Ni1481   1.914       .  S
O1465      H1488   0.967       .  S
C1466      C1509   1.433       .  S
C1466      O1483   1.271       .  A
C1466      O1475   1.274       .  A
O1467      C1473   1.270   1_455  A
O1467     Ni1486   1.934   1_455  S
O1468      C1470   1.268   1_455  A
O1468     Ni1486   1.915   1_455  S
Ni1469     O1472   1.930       .  S
Ni1469     O1474   1.908       .  S
C1470      O1480   1.269       .  A
O1471      C1477   1.269       .  A
O1471     Ni1487   1.908       .  S
O1472      C1477   1.273       .  A
O1474      C1476   1.268       .  A
O1475     Ni1486   1.926       .  S
C1476      C1496   1.438       .  S
C1476      O1482   1.272       .  A
C1477      C1499   1.436       .  S
H1478      O1479   0.967       .  S
O1479     Ni1487   1.906       .  S
O1479     Ni1481   1.908       .  S
O1479     Ni1486   1.919       .  S
O1480     Ni1481   1.928       .  S
Ni1481     O1485   1.903       .  S
Ni1481     O1483   1.910       .  S
O1482     Ni1487   1.934       .  S
C1484      O1485   1.264       .  A
C1489      C1490   1.207       .  T
C1491      C1492   1.208       .  T
C1493      C1494   1.207       .  T
C1495      C1496   1.208       .  T
C1497      C1498   1.206       .  T
C1501      C1502   1.207       .  T
C1503      C1504   1.207       .  T
C1505      C1506   1.209       .  T
C1507      C1508   1.208       .  T
C1509      C1510   1.204       .  T
C1511      C1512   1.205       .  T
C1517      C1518   1.210       .  T
C1519      C1520   1.208       .  T
C1521      C1522   1.203       .  T
C1523      C1524   1.207       .  T
C1525      C1526   1.208       .  T
C1527      C1528   1.210       .  T
C1529      C1530   1.207       .  T
C1531      C1532   1.206       .  T
C1533      C1534   1.211       .  T
C1535      C1536   1.212       .  T
C1537      C1538   1.210       .  T
C1539      C1540   1.207       .  T
C1541      C1542   1.208       .  T
C1543      C1544   1.206       .  T
C1545      C1546   1.210       .  T
C1547      C1548   1.213       .  T
C1549      C1550   1.208       .  T
C1551      C1552   1.208       .  T
C1553      C1554   1.206       .  T
C1555      C1556   1.207       .  T
C1557      C1558   1.209       .  T
C1559      C1560   1.207       .  T
