geometry optimzed in LAMMPS
_audit_creation_date              2020-12-01 
_audit_creation_method            'lammps2cif' 
_symmetry_space_group_name_H-M    'P1' 
_symmetry_Int_Tables_number       1 
_symmetry_cell_setting            triclinic 
loop_ 
_symmetry_equiv_pos_as_xyz 
  x,y,z 
_cell_length_a                    37.35653522 
_cell_length_b                    29.18750848426089 
_cell_length_c                    39.173985541909055 
_cell_angle_alpha                 89.32762681613977 
_cell_angle_beta                  92.66439016057926 
_cell_angle_gamma                 90.38261775481915 
loop_ 
_atom_site_label 
_atom_site_type_symbol 
_atom_site_fract_x 
_atom_site_fract_y 
_atom_site_fract_z 
_atom_site_charge 
C1          C  0.76710053  0.08057477  0.41786973     0.29500
C2          C  0.81037406  0.02198707  0.38597530     0.29500
C3          C  0.79346103  0.10401151  0.39336914    -0.06700
C4          C  0.79144091  0.05118746  0.44078662    -0.07500
C5          C  0.74721901  0.04540246  0.39417213    -0.07400
C6          C  0.81532717  0.07400865  0.37663771    -0.06700
C7          C  0.81373180  0.02132430  0.42517640    -0.07500
C8          C  0.76900236  0.01473899  0.37823929    -0.07400
C9          C  0.82804643  0.09867627  0.34881794    -0.32800
N10         N  0.81707113  0.14297132  0.34933838     0.13700
C11         C  0.79424974  0.14564067  0.37540192    -0.32800
H12         H  0.77621453  0.17398794  0.37852820     0.15700
C13         C  0.83463870  0.00049533  0.45113495    -0.31700
N14         N  0.82498534  0.01783293  0.48150576     0.12500
C15         C  0.79865370  0.04870935  0.47522218    -0.31700
C16         C  0.74666775  0.47190775  0.35983164    -0.32000
N17         N  0.71195928  0.47410467  0.36929175     0.13000
H18         H  0.75461274  0.45362236  0.33773505     0.15600
C19         C  0.71212440  0.03689398  0.38209978    -0.32000
H20         H  0.68875887  0.05674676  0.38742579     0.15600
H21         H  0.78611118  0.06860914  0.49448980     0.15600
H22         H  0.84093738  0.08435446  0.32730079     0.15700
H23         H  0.85588969  0.48172274  0.45040162     0.15600
O24         O  0.66229146  0.17350794  0.37324789    -0.85900
O25         O  0.65741408  0.13096973  0.31256716    -0.82900
C26         C  0.62377930  0.12408629  0.31160908     0.97600
O27         O  0.60087921  0.15566732  0.32217773    -0.82900
O28         O  0.59835433  0.22178685  0.38402278    -0.85600
C29         C  0.61146591  0.25139337  0.40479028     1.02100
O30         O  0.63365178  0.28160295  0.39499264    -0.78300
O31         O  0.69537633  0.23358027  0.38463891    -0.78500
C32         C  0.68275025  0.19573984  0.39371670     1.02100
O33         O  0.70407548  0.20449806  0.31506597    -0.85900
O34         O  0.64222925  0.20382419  0.27455326    -0.82900
C35         C  0.61292059  0.22103035  0.26287906     0.97600
O36         O  0.59162765  0.23862417  0.28302139    -0.82900
O37         O  0.58891060  0.30149414  0.33648614    -0.85600
C38         C  0.61214559  0.33375834  0.33130861     1.02100
O39         O  0.64515852  0.32725598  0.33376676    -0.78400
O40         O  0.70480375  0.27976127  0.32219944    -0.78500
C41         C  0.71731838  0.24394240  0.30939445     1.02100
Cr42       Cr  0.65339900  0.19055140  0.32405387     1.93700
Cr43       Cr  0.59687725  0.23074975  0.33291363     1.93200
Cr44       Cr  0.66840541  0.27908472  0.35766508     1.39100
O45         O  0.64232514  0.24137629  0.33359416    -1.23600
C46         C  0.67875767  0.33542342  0.11080803     0.29500
C47         C  0.63518641  0.27461098  0.14200029     0.29500
C48         C  0.65180655  0.35739904  0.13501690    -0.06700
C49         C  0.65504386  0.30601042  0.08751641    -0.07500
C50         C  0.69835678  0.29996111  0.13451109    -0.07400
C51         C  0.62966892  0.32632981  0.15113815    -0.06700
C52         C  0.63228937  0.27538742  0.10271089    -0.07500
C53         C  0.67648255  0.26834334  0.15030716    -0.07400
C54         C  0.61501856  0.35018407  0.17791192    -0.32800
N55         N  0.62572666  0.39485849  0.17789112     0.13700
C56         C  0.64974722  0.39868835  0.15271831    -0.32800
H57         H  0.66784519  0.42752807  0.15021608     0.15700
C58         C  0.61098728  0.25640981  0.07637428    -0.31700
N59         N  0.62079981  0.27556741  0.04623657     0.12500
C60         C  0.64836092  0.30484274  0.05303756    -0.31700
C61         C  0.69962896  0.24019876  0.17041056    -0.32000
N62         N  0.73425638  0.25345308  0.16659089     0.13000
H63         H  0.69214805  0.21299838  0.18759046     0.15600
C64         C  0.73343752  0.29112878  0.14594584    -0.32000
H65         H  0.75690979  0.31117266  0.14024498     0.15600
H66         H  0.66189349  0.32509482  0.03416481     0.15600
H67         H  0.60138642  0.33500491  0.19895015     0.15700
H68         H  0.58924788  0.23213287  0.07902378     0.15600
O69         O  0.78268684  0.42857706  0.15249632    -0.85900
O70         O  0.78878182  0.38112542  0.21170457    -0.82900
C71         C  0.82258054  0.37670863  0.21345206     0.97600
O72         O  0.84458148  0.41116746  0.20461735    -0.82900
O73         O  0.84994724  0.97938619  0.14590864    -0.85600
C74         C  0.83637087  0.00728451  0.12382983     1.02100
O75         O  0.81241750  0.03581352  0.13133212    -0.78300
O76         O  0.74636899  0.48570373  0.14369894    -0.78500
C77         C  0.76119476  0.45078380  0.13283112     1.02100
O78         O  0.74013578  0.45110849  0.21228303    -0.85900
O79         O  0.80146274  0.45177474  0.25228844    -0.82900
C80         C  0.82963862  0.47098108  0.26481134     0.97600
O81         O  0.85147735  0.99280616  0.24642728    -0.82900
O82         O  0.85500585  0.05847709  0.19374070    -0.85600
C83         C  0.83058359  0.08953424  0.19652867     1.02100
O84         O  0.79808919  0.08147859  0.19109651    -0.78400
O85         O  0.74052743  0.03038579  0.20304016    -0.78500
C86         C  0.72860893  0.99382303  0.21608601     1.02100
Cr87       Cr  0.79088695  0.44187890  0.20228743     1.93700
Cr88       Cr  0.84872967  0.98683151  0.19653841     1.93200
Cr89       Cr  0.77693915  0.03171075  0.16802542     1.39100
O90         O  0.79986753  0.49437212  0.19442238    -1.23600
O91         O  0.65416606  0.49314861  0.34678882    -0.85900
O92         O  0.59352953  0.05141511  0.30999437    -0.82900
C93         C  0.61358905  0.07957383  0.29551419     0.97600
O94         O  0.62979619  0.06716681  0.26924506    -0.82900
O95         O  0.66930425  0.01224372  0.22558543    -0.85600
C96         C  0.69826266  0.99513258  0.23752554     1.03700
O97         O  0.69793567  0.46260373  0.26803042    -0.78300
O98         O  0.67709868  0.42911981  0.32959447    -0.78500
C99         C  0.67976719  0.46473066  0.34790286     1.02100
O100        O  0.60712273  0.41400816  0.33784406    -0.85900
O101        O  0.55908064  0.46985835  0.30126720    -0.82900
C102        C  0.54699190  0.49183480  0.27540050     0.97600
O103        O  0.56689529  0.51382172  0.25564852    -0.82900
O104        O  0.60726808  0.45701112  0.21303317    -0.85600
C105        C  0.62706192  0.42215856  0.20878243     1.02100
O106        O  0.64886355  0.40972658  0.23212978    -0.78400
O107        O  0.61435170  0.38586488  0.28826671    -0.78500
C108        C  0.60525726  0.37982687  0.31818478     1.02100
Cr109      Cr  0.60662071  0.48125608  0.32297364     1.93700
Cr110      Cr  0.61944198  0.01042543  0.24153976     1.93200
Cr111      Cr  0.65667684  0.42548998  0.28054355     1.39100
O112        O  0.62794811  0.47315139  0.28317424    -1.23600
O113        O  0.79494261  0.25803198  0.18482460    -0.85900
O114        O  0.85282038  0.30383569  0.21430609    -0.82900
C115        C  0.83342180  0.33163896  0.22927659     0.97600
O116        O  0.81736964  0.31798067  0.25556524    -0.82900
O117        O  0.77757195  0.26228267  0.30034652    -0.85600
C118        C  0.74819193  0.24622077  0.28820761     1.02100
O119        O  0.74624341  0.22513339  0.26034440    -0.78300
O120        O  0.76612478  0.19596133  0.19918969    -0.78500
C121        C  0.76627444  0.23492311  0.18412215     1.02100
O122        O  0.83472319  0.17095505  0.19144858    -0.85900
O123        O  0.88497304  0.21722664  0.23106157    -0.82900
C124        C  0.89835025  0.23978976  0.25569412     0.97600
O125        O  0.87957287  0.26438506  0.27431824    -0.82900
O126        O  0.83762953  0.20603707  0.31554201    -0.85600
C127        C  0.81575862  0.17271736  0.31936598     1.02100
O128        O  0.79176649  0.16460653  0.29667545    -0.78400
O129        O  0.82304873  0.13948663  0.23967455    -0.78500
C130        C  0.83480447  0.13554834  0.21052628     1.02100
Cr131      Cr  0.84005062  0.23650223  0.20837024     1.93700
Cr132      Cr  0.82757608  0.26095821  0.28365607     1.93200
Cr133      Cr  0.78455095  0.18407014  0.24815268     1.39100
O134        O  0.81711412  0.22772336  0.24723008    -1.23600
C135        C  0.18076291  0.10809743  0.09724207     0.29500
C136        C  0.13771514  0.05524151  0.13528205     0.29500
C137        C  0.15584261  0.13518634  0.12109111    -0.06700
C138        C  0.15430605  0.07593519  0.07750655    -0.07500
C139        C  0.20112450  0.07473322  0.12212656    -0.07400
C140        C  0.13121999  0.10794109  0.13677213    -0.06700
C141        C  0.13156320  0.04829728  0.09671469    -0.07500
C142        C  0.17903645  0.04583991  0.13901150    -0.07400
C143        C  0.11385897  0.13414283  0.16039774    -0.32800
N144        N  0.13128539  0.17429600  0.16493955     0.13700
C145        C  0.15792548  0.17464836  0.14175073    -0.32800
H146        H  0.17970606  0.19929807  0.14209611     0.15700
C147        C  0.10868900  0.02637561  0.07322124    -0.31700
N148        N  0.11812014  0.03893578  0.04135235     0.12500
C149        C  0.14563923  0.06917557  0.04377552    -0.31700
C150        C  0.19820575  0.51785845  0.15953443    -0.32000
N151        N  0.23331901  0.52849207  0.15637631     0.13000
H152        H  0.18863433  0.49133037  0.17641509     0.15600
C153        C  0.23611191  0.06395532  0.13419188    -0.32000
H154        H  0.26033645  0.08217157  0.12821818     0.15600
H155        H  0.15778648  0.08592611  0.02233996     0.15600
H156        H  0.09498928  0.12080429  0.17826222     0.15700
H157        H  0.08255391  0.50903601  0.07628303     0.15600
O158        O  0.28491939  0.19619663  0.14470544    -0.85900
O159        O  0.28949816  0.15189054  0.20595068    -0.82900
C160        C  0.32328004  0.14710910  0.20884196     0.97600
O161        O  0.34564689  0.18107504  0.19944203    -0.82900
O162        O  0.34909168  0.24904218  0.13738441    -0.85600
C163        C  0.33577504  0.27674623  0.11505848     1.02100
O164        O  0.31042654  0.30377745  0.12191907    -0.78300
O165        O  0.24889882  0.25289884  0.13408627    -0.78500
C166        C  0.26353609  0.21738095  0.12428864     1.02100
O167        O  0.24117129  0.22402694  0.20267631    -0.85900
O168        O  0.30202468  0.22415741  0.24439637    -0.82900
C169        C  0.33021737  0.24371056  0.25666258     0.97600
O170        O  0.35022857  0.26536550  0.23713894    -0.82900
O171        O  0.35289580  0.32950875  0.18380209    -0.85600
C172        C  0.32826037  0.36059816  0.18574608     1.02100
O173        O  0.29584108  0.35179822  0.18057789    -0.78400
O174        O  0.23898025  0.29951249  0.19478628    -0.78500
C175        C  0.22783327  0.26301089  0.20870714     1.02100
Cr176      Cr  0.29217080  0.21240345  0.19432633     1.93700
Cr177      Cr  0.34745205  0.25750132  0.18781342     1.93200
Cr178      Cr  0.27502772  0.30042005  0.15910978     1.39100
O179        O  0.30172749  0.26462099  0.18495932    -1.23600
C180        C  0.26905256  0.34727859  0.40920445     0.29500
C181        C  0.31294069  0.28846044  0.37810834     0.29500
C182        C  0.29528036  0.37045837  0.38456416    -0.06700
C183        C  0.29352595  0.31866835  0.43258364    -0.07500
C184        C  0.24968685  0.31145554  0.38607721    -0.07400
C185        C  0.31748892  0.34055574  0.36817470    -0.06700
C186        C  0.31647727  0.28899896  0.41749774    -0.07500
C187        C  0.27172207  0.28084400  0.37038627    -0.07400
C188        C  0.33044511  0.36551319  0.34049603    -0.32800
N189        N  0.31899845  0.40969549  0.34081794     0.13700
C190        C  0.29608158  0.41213639  0.36677785    -0.32800
H191        H  0.27789631  0.44034557  0.36990812     0.15700
C192        C  0.33905244  0.27171841  0.44387300    -0.31700
N193        N  0.32975374  0.29099276  0.47379914     0.12500
C194        C  0.30145433  0.31876782  0.46688333    -0.31700
C195        C  0.24882340  0.25273466  0.35025814    -0.32000
N196        N  0.21420971  0.26489589  0.35399871     0.13000
H197        H  0.25629890  0.22637614  0.33296528     0.15600
C198        C  0.21470758  0.30201594  0.37464021    -0.32000
H199        H  0.19118020  0.32136901  0.38036704     0.15600
H200        H  0.28836706  0.33914529  0.48550856     0.15600
H201        H  0.34366794  0.35153956  0.31912414     0.15700
H202        H  0.36138752  0.24879771  0.44127914     0.15600
O203        O  0.16364318  0.44021765  0.37850663    -0.85900
O204        O  0.15873460  0.39141871  0.32027321    -0.82900
C205        C  0.12488851  0.38664396  0.31555400     0.97600
O206        O  0.10206829  0.42022723  0.32276852    -0.82900
O207        O  0.09886239  0.98773906  0.38323367    -0.85600
C208        C  0.10955071  0.01823677  0.40409058     1.02100
O209        O  0.13223971  0.04888909  0.39607242    -0.78300
O210        O  0.19327384  0.50325819  0.39030803    -0.78500
C211        C  0.18259579  0.46425042  0.39912417     1.02100
O212        O  0.20724347  0.46652658  0.31863312    -0.85900
O213        O  0.14814103  0.46088356  0.27836492    -0.82900
C214        C  0.12136884  0.48042971  0.26396334     0.97600
O215        O  0.09922639  0.00230603  0.28455613    -0.82900
O216        O  0.09510779  0.06807053  0.33379573    -0.85600
C217        C  0.11963549  0.09896592  0.32822163     1.02100
O218        O  0.15204980  0.09120706  0.33459055    -0.78400
O219        O  0.21120570  0.04107579  0.33052488    -0.78500
C220        C  0.22231506  0.00629387  0.31510960     1.02100
Cr221      Cr  0.15615891  0.45266198  0.32846434     1.93700
Cr222      Cr  0.10107313  0.99579437  0.33319743     1.93200
Cr223      Cr  0.17125373  0.04322511  0.36260336     1.39100
O224        O  0.14477872  0.50502155  0.33432394    -1.23600
O225        O  0.15356069  0.26794653  0.33668079    -0.85900
O226        O  0.09451562  0.31353958  0.30975931    -0.82900
C227        C  0.11458153  0.34338751  0.29711816     0.97600
O228        O  0.13089925  0.33336243  0.27047297    -0.82900
O229        O  0.16988264  0.28468279  0.22270282    -0.85600
C230        C  0.19840354  0.26393878  0.23157425     1.02100
O231        O  0.20074828  0.23859759  0.25773295    -0.78300
O232        O  0.18332155  0.20843818  0.31982079    -0.78500
C233        C  0.18251963  0.24614774  0.33617536     1.02100
O234        O  0.11500336  0.18071218  0.33074045    -0.85900
O235        O  0.06385470  0.22734844  0.29108540    -0.82900
C236        C  0.04983040  0.25100131  0.26696406     0.97600
O237        O  0.06812966  0.27835448  0.24908759    -0.82900
O238        O  0.11123985  0.23067503  0.20347339    -0.85600
C239        C  0.13195250  0.19724575  0.19790607     1.02100
O240        O  0.15260951  0.18173931  0.22180012    -0.78400
O241        O  0.12534623  0.15009281  0.28251123    -0.78500
C242        C  0.11513721  0.14522742  0.31245729     1.02100
Cr243      Cr  0.10855955  0.24656614  0.31371303     1.93700
Cr244      Cr  0.12039573  0.27951658  0.23957276     1.93200
Cr245      Cr  0.16256318  0.19737893  0.27129377     1.39100
O246        O  0.13066216  0.24118937  0.27408076    -1.23600
O247        O  0.29335448  0.53044857  0.17723801    -0.85900
O248        O  0.35289507  0.07364284  0.21045948    -0.82900
C249        C  0.33379433  0.10187380  0.22550000     0.97600
O250        O  0.31812276  0.08840065  0.25229669    -0.82900
O251        O  0.28026312  0.02988629  0.29938582    -0.85600
C252        C  0.25059386  0.01169040  0.29022942     1.02100
O253        O  0.24440977  0.49077409  0.25885178    -0.78300
O254        O  0.26119989  0.47125374  0.19305326    -0.78500
C255        C  0.26384082  0.50909159  0.17626201     1.02100
O256        O  0.33181028  0.44299120  0.18170071    -0.85900
O257        O  0.38284313  0.48680898  0.22347342    -0.82900
C258        C  0.39666881  0.50831217  0.24855007     0.97600
O259        O  0.38028287  0.03230194  0.26800964    -0.82900
O260        O  0.33716361  0.47499585  0.30802811    -0.85600
C261        C  0.31711665  0.43957107  0.31087953     1.02100
O262        O  0.29389718  0.43001322  0.28776029    -0.78400
O263        O  0.32069835  0.41003546  0.22914657    -0.78500
C264        C  0.33202606  0.40688049  0.19993083     1.02100
Cr265      Cr  0.33794090  0.50753638  0.20099544     1.93700
Cr266      Cr  0.32874139  0.02929446  0.27904289     1.93200
Cr267      Cr  0.28274450  0.45371417  0.24088604     1.39100
O268        O  0.31495724  0.49800597  0.24004513    -1.23600
C269        C  0.24624198  0.37833999  0.42950579    -0.06600
C270        C  0.25786537  0.42316962  0.43674961    -0.17800
C271        C  0.23213373  0.45670450  0.44104293     0.10600
C272        C  0.19647318  0.44479302  0.43186323    -0.06600
C273        C  0.18579058  0.39984976  0.43940169    -0.17800
C274        C  0.21170167  0.36556584  0.43953584     0.10600
S275        S  0.24499199  0.51522618  0.44957721    -0.32800
S276        S  0.20124475  0.30775860  0.45290389    -0.32800
H277        H  0.16495188  0.31590043  0.45865652     0.28600
H278        H  0.28069362  0.50524755  0.45996679     0.28600
H279        H  0.28592182  0.43246892  0.43602886     0.19200
H280        H  0.15764524  0.39076540  0.43912254     0.19200
C281        C  0.33811220  0.25470195  0.36214020    -0.06600
C282        C  0.36694757  0.27310101  0.34495961    -0.17800
C283        C  0.36774528  0.26727288  0.30957237     0.10600
C284        C  0.34029686  0.24013025  0.29341324    -0.06600
C285        C  0.32234528  0.20823087  0.31376749    -0.17800
C286        C  0.32384735  0.21350639  0.34925330     0.10600
S287        S  0.40115151  0.29820398  0.28631641    -0.32800
S288        S  0.30305673  0.17276937  0.37722996    -0.32800
H289        H  0.29480984  0.14020238  0.35179388     0.28600
H290        H  0.42204764  0.31272145  0.31503492     0.28600
H291        H  0.38341683  0.29939119  0.35719129     0.19200
H292        H  0.30577281  0.18153611  0.30215409     0.19200
C293        C  0.34915195  0.27863341  0.07991271    -0.06600
C294        C  0.35187104  0.32187815  0.06426246    -0.17800
C295        C  0.35399411  0.32633625  0.02890391     0.10600
C296        C  0.35031242  0.28705004  0.00820311    -0.06600
C297        C  0.35296447  0.24373297  0.02395497    -0.17800
C298        C  0.35381274  0.23928323  0.05978655     0.10600
S299        S  0.35800504  0.38334716  0.01113538    -0.32800
S300        S  0.35803201  0.18269033  0.07794836    -0.32800
H301        H  0.38436644  0.19574797  0.10283777     0.28600
H302        H  0.36680947  0.36756918  0.47967118     0.28600
H303        H  0.35061799  0.35252905  0.07952154     0.19200
H304        H  0.35154320  0.21330582  0.00837400     0.19200
C305        C  0.20253691  0.13584367  0.07266466    -0.06600
C306        C  0.19345126  0.18191062  0.06757126    -0.17800
C307        C  0.21960226  0.21485344  0.07505510     0.10600
C308        C  0.25232009  0.19925407  0.09062109    -0.06600
C309        C  0.26412167  0.15571343  0.08170609    -0.17800
C310        C  0.23859925  0.12444486  0.06899276     0.10600
S311        S  0.20768973  0.27446220  0.07114616    -0.32800
S312        S  0.25085967  0.06864964  0.05427286    -0.32800
H313        H  0.28795762  0.07760332  0.05523192     0.28600
H314        H  0.24344981  0.29018526  0.07284163     0.28600
H315        H  0.16566646  0.19206497  0.06411651     0.19200
H316        H  0.29067086  0.14397260  0.08937678     0.19200
C317        C  0.12420299  0.03521192  0.16791642    -0.06600
C318        C  0.14221750  0.05606776  0.19651663    -0.17800
C319        C  0.14321969  0.03744551  0.22781078     0.10600
C320        C  0.12301470  0.99852862  0.23286510    -0.06600
C321        C  0.10119121  0.97888613  0.20673174    -0.17800
C322        C  0.10206072  0.99679618  0.17329450     0.10600
S323        S  0.17086007  0.06490803  0.26087584    -0.32800
S324        S  0.07521628  0.97094538  0.13955202    -0.32800
H325        H  0.05706671  0.93948964  0.16015694     0.28600
H326        H  0.19595405  0.08513997  0.23951027     0.28600
H327        H  0.15977506  0.08539212  0.19357096     0.19200
H328        H  0.08443473  0.94965145  0.21249545     0.19200
C329        C  0.10142876  0.02623308  0.00925954    -0.06600
C330        C  0.08202584  0.05931537  0.48896594    -0.17800
C331        C  0.08149984  0.05544802  0.45346045     0.10600
C332        C  0.09729825  0.01696865  0.43906672    -0.06600
C333        C  0.10858916  0.98028529  0.46020212    -0.17800
C334        C  0.10983577  0.98463289  0.49577554     0.10600
S335        S  0.07402779  0.61415384  0.42805091    -0.32800
S336        S  0.13212047  0.94182059  0.52255387    -0.32800
H337        H  0.10701231  0.94184380  0.04679370     0.28600
H338        H  0.06239021  0.59155068  0.39797740     0.28600
H339        H  0.08114863  0.09418966  0.99963239     0.19200
H340        H  0.12012642  0.95056799  0.44888546     0.19200
C341        C  0.01111467  0.24842767  0.26153276    -0.06600
C342        C  0.99443541  0.20576932  0.26655619    -0.17800
C343        C  0.95733984  0.20199013  0.26597228     0.10600
C344        C  0.93680517  0.24168163  0.26018634    -0.06600
C345        C  0.95321499  0.28417026  0.25486188    -0.17800
C346        C  0.99035383  0.28806584  0.25516815     0.10600
S347        S  0.93784209  0.14621512  0.27357474    -0.32800
S348        S  0.01039454  0.34405611  0.24934503    -0.32800
H349        H  0.97901462  0.36645087  0.23717930     0.28600
H350        H  0.90673036  0.16206623  0.28840326     0.28600
H351        H  0.01044541  0.17537094  0.27160016     0.19200
H352        H  0.93675239  0.31420026  0.25005011     0.19200
C353        C  0.50867396  0.49457796  0.26886113    -0.06600
C354        C  0.49506807  0.03475136  0.26025071    -0.17800
C355        C  0.45825490  0.04060139  0.25653170     0.10600
C356        C  0.43512728  0.50462400  0.25615700    -0.06600
C357        C  0.45127497  0.46186480  0.25213574    -0.17800
C358        C  0.48801038  0.45649447  0.25818856     0.10600
S359        S  0.44014544  0.09767017  0.25082579    -0.32800
S360        S  0.50692614  0.40083665  0.25109828    -0.32800
H361        H  0.54068157  0.41654487  0.24143403     0.28600
H362        H  0.47312028  0.12114944  0.25008735     0.28600
H363        H  0.51256172  0.06451374  0.26132501     0.19200
H364        H  0.43519347  0.43255259  0.24402294     0.19200
C365        C  0.75042618  0.43430532  0.09858014    -0.06600
C366        C  0.76266833  0.39103944  0.08962590    -0.17800
C367        C  0.73708554  0.35683293  0.08317945     0.10600
C368        C  0.70133368  0.36725470  0.09000857    -0.06600
C369        C  0.69016177  0.41250965  0.08419028    -0.17800
C370        C  0.71596447  0.44700527  0.08582948     0.10600
S371        S  0.74957491  0.30132913  0.06790848    -0.32800
S372        S  0.70233680  0.50580127  0.08054041    -0.32800
H373        H  0.73763709  0.52311249  0.08061727     0.28600
H374        H  0.78600098  0.31228236  0.06453068     0.28600
H375        H  0.79062842  0.38205948  0.09352104     0.19200
H376        H  0.66199038  0.42121304  0.08277280     0.19200
C377        C  0.60387197  0.21973125  0.22588041    -0.06600
C378        C  0.62315009  0.19000451  0.20560774    -0.17800
C379        C  0.62397272  0.19831747  0.17046281     0.10600
C380        C  0.61000346  0.23994701  0.15791978    -0.06600
C381        C  0.58030822  0.25671895  0.17424262    -0.17800
C382        C  0.57759742  0.24811821  0.20929491     0.10600
S383        S  0.64623287  0.16004534  0.14260728    -0.32800
S384        S  0.54358745  0.27732803  0.23197396    -0.32800
H385        H  0.52423372  0.29434661  0.20291422     0.28600
H386        H  0.65366913  0.12599192  0.16761844     0.28600
H387        H  0.63913033  0.16269225  0.21726707     0.19200
H388        H  0.56427866  0.28342446  0.16185838     0.19200
C389        C  0.60235821  0.25247112  0.44146861    -0.06600
C390        C  0.60276443  0.29566186  0.45678407    -0.17800
C391        C  0.60577487  0.30036129  0.49214425     0.10600
C392        C  0.60575417  0.26819048  0.01220716    -0.06600
C393        C  0.60586525  0.21768544  0.49861384    -0.17800
C394        C  0.60019619  0.21315791  0.46292412     0.10600
S395        S  0.59664755  0.36400184  0.00366099    -0.32800
S396        S  0.59136314  0.15682370  0.44647796    -0.32800
H397        H  0.56397229  0.17148752  0.42310949     0.28600
H398        H  0.58513342  0.35236861  0.03635472     0.28600
H399        H  0.60231874  0.32636120  0.44092010     0.19200
H400        H  0.60616759  0.19481274  0.01675850     0.19200
C401        C  0.69520021  0.17602398  0.42666836    -0.06600
C402        C  0.68329689  0.13190356  0.43522318    -0.17800
C403        C  0.70891938  0.09931021  0.44492371     0.10600
C404        C  0.74472720  0.11084116  0.43925634    -0.06600
C405        C  0.75515561  0.15648659  0.44435688    -0.17800
C406        C  0.72905956  0.19019247  0.44025799     0.10600
S407        S  0.69653093  0.04320175  0.46047113    -0.32800
S408        S  0.74072081  0.24992449  0.44518374    -0.32800
H409        H  0.77502839  0.24226155  0.46045891     0.28600
H410        H  0.65959222  0.05219904  0.46090314     0.28600
H411        H  0.65615730  0.12094852  0.42896825     0.19200
H412        H  0.78325243  0.16588119  0.44633623     0.19200
C413        C  0.83561445  0.98843214  0.37010604    -0.06600
C414        C  0.82053838  0.94713531  0.35875205    -0.17800
C415        C  0.82314505  0.43567737  0.32371933     0.10600
C416        C  0.83796420  0.96877032  0.30217862    -0.06600
C417        C  0.86458326  0.99737299  0.31719275    -0.17800
C418        C  0.86481937  0.00515685  0.35223116     0.10600
S419        S  0.79888815  0.38608684  0.30797924    -0.32800
S420        S  0.89913749  0.04118384  0.37185899    -0.32800
H421        H  0.88766449  0.03511219  0.40528840     0.28600
H422        H  0.79666023  0.36343393  0.33972191     0.28600
H423        H  0.80301228  0.92834779  0.37522177     0.19200
H424        H  0.88306879  0.01626695  0.30173710     0.19200
C425        C  0.84238782  0.00572363  0.01582450    -0.06600
C426        C  0.85096576  0.04603246  0.03376430    -0.17800
C427        C  0.85264424  0.04674644  0.06938756     0.10600
C428        C  0.84673793  0.00589048  0.08791258    -0.06600
C429        C  0.84337085  0.96435113  0.07015346    -0.17800
C430        C  0.84067132  0.96396848  0.03413345     0.10600
S431        S  0.85923158  0.10160120  0.08961781    -0.32800
S432        S  0.83039902  0.91134075  0.01204389    -0.32800
H433        H  0.81575859  0.88678008  0.53493547     0.28600
H434        H  0.86704410  0.58977060  0.12230808     0.28600
H435        H  0.85278690  0.07815228  0.01977322     0.19200
H436        H  0.83916198  0.93295860  0.08441862     0.19200
C437        C  0.76971181  0.07390836  0.91774453     0.29500
C438        C  0.81144493  0.01337325  0.88593710     0.29500
C439        C  0.79703654  0.09606591  0.89372663    -0.06700
C440        C  0.79263098  0.04298935  0.94069135    -0.07500
C441        C  0.74886791  0.03998529  0.89381278    -0.07400
C442        C  0.81802062  0.06524435  0.87683451    -0.06700
C443        C  0.81452437  0.01237637  0.92533428    -0.07500
C444        C  0.76982763  0.00827249  0.87791089    -0.07400
C445        C  0.83073664  0.08961938  0.84877343    -0.32800
N446        N  0.82081015  0.13437757  0.84960898     0.13700
C447        C  0.79852473  0.13766706  0.87591258    -0.32800
H448        H  0.78094783  0.16647748  0.87906606     0.15700
C449        C  0.83568736  0.99243633  0.95171309    -0.31700
N450        N  0.82619221  0.01075356  0.98191481     0.12500
C451        C  0.79972444  0.04122821  0.97505678    -0.31700
C452        C  0.74637952  0.46743665  0.85959542    -0.32000
N453        N  0.71174328  0.46940055  0.86909776     0.13000
H454        H  0.75442255  0.44891092  0.83766009     0.15600
C455        C  0.71343218  0.03254030  0.88229139    -0.32000
H456        H  0.69056126  0.05297225  0.88817620     0.15600
H457        H  0.78767046  0.06247080  0.99383873     0.15600
H458        H  0.84277144  0.07491384  0.82694234     0.15700
H459        H  0.85653919  0.48261837  0.95007147     0.15600
O460        O  0.66421614  0.17050514  0.87651301    -0.85900
O461        O  0.65776256  0.12500041  0.81712483    -0.82900
C462        C  0.62393044  0.11951133  0.81512624     0.97600
O463        O  0.60137221  0.15204761  0.82458588    -0.82900
O464        O  0.59922128  0.21984763  0.88519726    -0.85600
C465        C  0.61184104  0.25087785  0.90501809     1.02100
O466        O  0.63423369  0.28052790  0.89472859    -0.78300
O467        O  0.69619136  0.23196453  0.88724570    -0.78500
C468        C  0.68506778  0.19331972  0.89631382     1.02100
O469        O  0.70516081  0.19809430  0.81757420    -0.85900
O470        O  0.64327858  0.19633395  0.77699398    -0.82900
C471        C  0.61455575  0.21453497  0.76474666     0.97600
O472        O  0.59378462  0.23406823  0.78436643    -0.82900
O473        O  0.59045657  0.29760703  0.83702731    -0.85600
C474        C  0.61365468  0.32917021  0.83044956     1.02100
O475        O  0.64663134  0.32208390  0.83184930    -0.78400
O476        O  0.70657136  0.27367117  0.82330635    -0.78500
C477        C  0.71883473  0.23711930  0.81138657     1.02100
Cr478      Cr  0.65451725  0.18527770  0.82703259     1.93700
Cr479      Cr  0.59816285  0.22712173  0.83421775     1.93200
Cr480      Cr  0.66961577  0.27563547  0.85810917     1.39100
O481        O  0.64373383  0.23669451  0.83520240    -1.23600
C482        C  0.67993880  0.32958876  0.61298784     0.29500
C483        C  0.63631332  0.26875854  0.64380840     0.29500
C484        C  0.65100056  0.35188690  0.63492772    -0.06700
C485        C  0.65866433  0.29756524  0.58961850    -0.07500
C486        C  0.69920893  0.29653584  0.63867917    -0.07400
C487        C  0.62883766  0.32070819  0.65109408    -0.06700
C488        C  0.63548384  0.26726400  0.60445856    -0.07500
C489        C  0.67739386  0.26463112  0.65417324    -0.07400
C490        C  0.61461578  0.34456274  0.67820251    -0.32800
N491        N  0.62514869  0.38930127  0.67814840     0.13700
C492        C  0.64919725  0.39295784  0.65300840    -0.32800
H493        H  0.66776021  0.42138357  0.65093120     0.15700
C494        C  0.61519685  0.24761109  0.57756672    -0.31700
N495        N  0.62651181  0.26560185  0.54751709     0.12500
C496        C  0.65402066  0.29464380  0.55501259    -0.31700
C497        C  0.70062904  0.23649557  0.67419792    -0.32000
N498        N  0.73518058  0.25009876  0.67048979     0.13000
H499        H  0.69337855  0.20833187  0.69058955     0.15600
C500        C  0.73425558  0.28807782  0.65021406    -0.32000
H501        H  0.75775009  0.30779108  0.64405297     0.15600
H502        H  0.66807932  0.31485111  0.53647277     0.15600
H503        H  0.60167777  0.32916773  0.69959653     0.15700
H504        H  0.59260578  0.22455756  0.57980099     0.15600
O505        O  0.78333866  0.42114565  0.65395573    -0.85900
O506        O  0.78883184  0.37516198  0.71400550    -0.82900
C507        C  0.82267491  0.37086465  0.71566588     0.97600
O508        O  0.84453549  0.40524581  0.70632902    -0.82900
O509        O  0.84664510  0.97499784  0.64479421    -0.85600
C510        C  0.83323382  0.00342098  0.62304216     1.02100
O511        O  0.80956147  0.03218039  0.63079454    -0.78300
O512        O  0.74704606  0.47795614  0.64393827    -0.78500
C513        C  0.76242824  0.44314217  0.63360355     1.02100
O514        O  0.73965124  0.44548990  0.71301327    -0.85900
O515        O  0.80079371  0.44671218  0.75346478    -0.82900
C516        C  0.82915618  0.46561533  0.76580038     0.97600
O517        O  0.84944375  0.98676380  0.74557186    -0.82900
O518        O  0.85375251  0.05301126  0.69303381    -0.85600
C519        C  0.83017795  0.08503371  0.69584603     1.02100
O520        O  0.79741700  0.07827599  0.69073276    -0.78400
O521        O  0.73885895  0.02856173  0.70368197    -0.78500
C522        C  0.72626772  0.99216127  0.71645158     1.02100
Cr523      Cr  0.79068730  0.43578180  0.70363246     1.93700
Cr524      Cr  0.84608919  0.98178128  0.69548800     1.93200
Cr525      Cr  0.77471491  0.02902094  0.66807716     1.39100
O526        O  0.79968112  0.48817546  0.69505030    -1.23600
O527        O  0.65429218  0.48852728  0.84638273    -0.85900
O528        O  0.59299515  0.04758969  0.81290570    -0.82900
C529        C  0.61290736  0.07592444  0.79839844     0.97600
O530        O  0.62826825  0.06433341  0.77146695    -0.82900
O531        O  0.66681550  0.01030477  0.72637930    -0.85600
C532        C  0.69616279  0.99410346  0.73827349     1.03700
O533        O  0.69756657  0.46011652  0.76855994    -0.78300
O534        O  0.67707098  0.42438198  0.82942145    -0.78500
C535        C  0.67972658  0.45998136  0.84768007     1.02100
O536        O  0.60772455  0.40896674  0.83744749    -0.85900
O537        O  0.55883663  0.46458876  0.80243995    -0.82900
C538        C  0.54602683  0.48645457  0.77686086     0.97600
O539        O  0.56561494  0.50820848  0.75658412    -0.82900
O540        O  0.60555726  0.45040957  0.71390263    -0.85600
C541        C  0.62656554  0.41690047  0.70896452     1.02100
O542        O  0.64984450  0.40635339  0.73155055    -0.78400
O543        O  0.61527637  0.38126188  0.78761545    -0.78500
C544        C  0.60636393  0.37500088  0.81756190     1.02100
Cr545      Cr  0.60669579  0.47630050  0.82317405     1.93700
Cr546      Cr  0.61719376  0.00823132  0.74343656     1.93200
Cr547      Cr  0.65702022  0.42155866  0.78028659     1.39100
O548        O  0.62756541  0.46838593  0.78318398    -1.23600
O549        O  0.79623139  0.25341685  0.68714249    -0.85900
O550        O  0.85397449  0.29865509  0.71690148    -0.82900
C551        C  0.83387027  0.32589540  0.73159387     0.97600
O552        O  0.81774532  0.31165352  0.75770733    -0.82900
O553        O  0.77909597  0.25464132  0.80239842    -0.85600
C554        C  0.74981359  0.23820190  0.79046087     1.02100
O555        O  0.74780149  0.21659716  0.76284034    -0.78300
O556        O  0.76745468  0.19102711  0.70097008    -0.78500
C557        C  0.76744695  0.23058959  0.68677807     1.02100
O558        O  0.83576853  0.16642531  0.69183408    -0.85900
O559        O  0.88644255  0.21195527  0.73261865    -0.82900
C560        C  0.89950167  0.23461581  0.75740830     0.97600
O561        O  0.88049425  0.25899156  0.77590172    -0.82900
O562        O  0.83980533  0.19905830  0.81668991    -0.85600
C563        C  0.81897478  0.16451179  0.81989840     1.02100
O564        O  0.79497989  0.15616336  0.79728418    -0.78400
O565        O  0.82557551  0.13396671  0.73990917    -0.78500
C566        C  0.83596876  0.13047491  0.71030670     1.02100
Cr567      Cr  0.84140771  0.23143397  0.71002752     1.93700
Cr568      Cr  0.82881509  0.25439668  0.78543002     1.93200
Cr569      Cr  0.78661067  0.17723229  0.74940282     1.39100
O570        O  0.81858790  0.22156924  0.74882007    -1.23600
C571        C  0.17894627  0.10352621  0.59829401     0.29500
C572        C  0.13496038  0.05174221  0.63613815     0.29500
C573        C  0.15406953  0.13123882  0.62170269    -0.06700
C574        C  0.15236247  0.07181390  0.57852946    -0.07500
C575        C  0.19867866  0.07022735  0.62356828    -0.07400
C576        C  0.12886828  0.10472506  0.63731124    -0.06700
C577        C  0.12918481  0.04464132  0.59757053    -0.07500
C578        C  0.17622966  0.04225088  0.64085954    -0.07400
C579        C  0.11158802  0.13188906  0.66044721    -0.32800
N580        N  0.13005727  0.17133514  0.66518908     0.13700
C581        C  0.15684405  0.17063866  0.64224393    -0.32800
H582        H  0.17921731  0.19440806  0.64279536     0.15700
C583        C  0.10463896  0.02562691  0.57406597    -0.31700
N584        N  0.11367041  0.03940942  0.54234212     0.12500
C585        C  0.14239793  0.06760664  0.54486207    -0.31700
C586        C  0.19696781  0.51556765  0.66179156    -0.32000
N587        N  0.23215834  0.52554542  0.65810224     0.13000
H588        H  0.18741853  0.48893792  0.67859956     0.15600
C589        C  0.23352837  0.05883685  0.63543302    -0.32000
H590        H  0.25795756  0.07624088  0.62907138     0.15600
H591        H  0.15464731  0.08451710  0.52354030     0.15600
H592        H  0.09223892  0.11937749  0.67814780     0.15700
H593        H  0.08099875  0.50715657  0.57755441     0.15600
O594        O  0.28421511  0.19231934  0.64631561    -0.85900
O595        O  0.28879423  0.14922602  0.70783402    -0.82900
C596        C  0.32244265  0.14331800  0.70972503     0.97600
O597        O  0.34514040  0.17668987  0.69965634    -0.82900
O598        O  0.34856125  0.24500767  0.63727523    -0.85600
C599        C  0.33538309  0.27327969  0.61523972     1.02100
O600        O  0.31073279  0.30090213  0.62272122    -0.78300
O601        O  0.24932160  0.24996904  0.63457273    -0.78500
C602        C  0.26302881  0.21340114  0.62563965     1.02100
O603        O  0.24138787  0.22148734  0.70399520    -0.85900
O604        O  0.30283023  0.22168286  0.74558593    -0.82900
C605        C  0.33159444  0.24047515  0.75731666     0.97600
O606        O  0.35154326  0.26136282  0.73733844    -0.82900
O607        O  0.35330982  0.32570476  0.68425275    -0.85600
C608        C  0.32864171  0.35679578  0.68664483     1.02100
O609        O  0.29623687  0.34809790  0.68153369    -0.78400
O610        O  0.23915560  0.29674064  0.69514839    -0.78500
C611        C  0.22791113  0.26053290  0.70929332     1.02100
Cr612      Cr  0.29217606  0.20936230  0.69566436     1.93700
Cr613      Cr  0.34767388  0.25343529  0.68797548     1.93200
Cr614      Cr  0.27540933  0.29723157  0.65980077     1.39100
O615        O  0.30203384  0.26126797  0.68568045    -1.23600
C616        C  0.26952241  0.34173623  0.91048765     0.29500
C617        C  0.31433323  0.28426817  0.87910556     0.29500
C618        C  0.29420290  0.36532657  0.88463419    -0.06700
C619        C  0.29557723  0.31516780  0.93361514    -0.07500
C620        C  0.25066484  0.30429634  0.88855456    -0.07400
C621        C  0.31689859  0.33619446  0.86826111    -0.06700
C622        C  0.31903081  0.28620120  0.91842862    -0.07500
C623        C  0.27315138  0.27446480  0.87257302    -0.07400
C624        C  0.33013999  0.36182956  0.84110697    -0.32800
N625        N  0.31804482  0.40566950  0.84158127     0.13700
C626        C  0.29479674  0.40734680  0.86732016    -0.32800
H627        H  0.27654946  0.43539933  0.87075043     0.15700
C628        C  0.34300561  0.27125403  0.94452405    -0.31700
N629        N  0.33395892  0.29122579  0.97428694     0.12500
C630        C  0.30456862  0.31710894  0.96761221    -0.31700
C631        C  0.25060926  0.24649839  0.85189830    -0.32000
N632        N  0.21581395  0.25809124  0.85555250     0.13000
H633        H  0.25853469  0.22122524  0.83393182     0.15600
C634        C  0.21589189  0.29463655  0.87671631    -0.32000
H635        H  0.19226447  0.31407704  0.88198488     0.15600
H636        H  0.29127707  0.33733065  0.98620882     0.15600
H637        H  0.34417223  0.34864543  0.81995972     0.15700
H638        H  0.36593396  0.24936639  0.94182454     0.15600
O639        O  0.16316395  0.43641455  0.87900513    -0.85900
O640        O  0.15959851  0.38722369  0.82105193    -0.82900
C641        C  0.12580274  0.38194526  0.81628608     0.97600
O642        O  0.10256849  0.41503547  0.82334135    -0.82900
O643        O  0.09659863  0.98555436  0.88247545    -0.85600
C644        C  0.10811400  0.01628755  0.90285972     1.02100
O645        O  0.13142938  0.04569533  0.89432406    -0.78300
O646        O  0.19271641  0.49965558  0.89027999    -0.78500
C647        C  0.18256703  0.46046002  0.89920777     1.02100
O648        O  0.20717387  0.46292405  0.81999884    -0.85900
O649        O  0.14891006  0.45628573  0.77884920    -0.82900
C650        C  0.12202194  0.47520869  0.76422059     0.97600
O651        O  0.09873192  0.99521296  0.78316060    -0.82900
O652        O  0.09486717  0.06363145  0.83132384    -0.85600
C653        C  0.12002212  0.09376697  0.82604079     1.02100
O654        O  0.15222041  0.08510794  0.83264737    -0.78400
O655        O  0.21000596  0.03347342  0.82977690    -0.78500
C656        C  0.22057148  0.99817303  0.81484181     1.02100
Cr657      Cr  0.15613584  0.44836768  0.82899008     1.93700
Cr658      Cr  0.09960642  0.99116450  0.83214325     1.93200
Cr659      Cr  0.17028329  0.03744066  0.86141949     1.39100
O660        O  0.14405825  0.50047982  0.83461156    -1.23600
O661        O  0.15546537  0.26233288  0.83733014    -0.85900
O662        O  0.09640121  0.30854543  0.81128183    -0.82900
C663        C  0.11582008  0.33865697  0.79809052     0.97600
O664        O  0.13152485  0.32913439  0.77098493    -0.82900
O665        O  0.16931172  0.28052466  0.72216856    -0.85600
C666        C  0.19842139  0.26178016  0.73189291     1.02100
O667        O  0.20117124  0.23771981  0.75863965    -0.78300
O668        O  0.18507510  0.20329350  0.81965152    -0.78500
C669        C  0.18431072  0.24031367  0.83678983     1.02100
O670        O  0.11653500  0.17525337  0.82994976    -0.85900
O671        O  0.06523307  0.22286884  0.79241803    -0.82900
C672        C  0.05060603  0.24718948  0.76908317     0.97600
O673        O  0.06841193  0.27484106  0.75106313    -0.82900
O674        O  0.10987927  0.22619578  0.70481170    -0.85600
C675        C  0.13150634  0.19419241  0.69818746     1.02100
O676        O  0.15407187  0.18025243  0.72105831    -0.78400
O677        O  0.12757911  0.14583346  0.78131139    -0.78500
C678        C  0.11658853  0.14041907  0.81096443     1.02100
Cr679      Cr  0.11018762  0.24157276  0.81447171     1.93700
Cr680      Cr  0.12027517  0.27545935  0.74028618     1.93200
Cr681      Cr  0.16406438  0.19430998  0.77094357     1.39100
O682        O  0.13156754  0.23714080  0.77454054    -1.23600
O683        O  0.29256955  0.52657206  0.67817480    -0.85900
O684        O  0.35107272  0.06906142  0.71040035    -0.82900
C685        C  0.33218957  0.09723071  0.72567950     0.97600
O686        O  0.31599813  0.08316130  0.75203953    -0.82900
O687        O  0.27736226  0.02397361  0.79810380    -0.85600
C688        C  0.24851078  0.00314862  0.78978720     1.02100
O689        O  0.24361740  0.48690755  0.75962461    -0.78300
O690        O  0.26034589  0.46747474  0.69395187    -0.78500
C691        C  0.26290564  0.50552069  0.67740874     1.02100
O692        O  0.33164501  0.43921247  0.68275053    -0.85900
O693        O  0.38209326  0.48291821  0.72483285    -0.82900
C694        C  0.39566610  0.50405132  0.75017163     0.97600
O695        O  0.37781162  0.02654244  0.76837189    -0.82900
O696        O  0.33631490  0.47101656  0.80898301    -0.85600
C697        C  0.31617352  0.43568395  0.81177448     1.02100
O698        O  0.29300985  0.42614320  0.78860243    -0.78400
O699        O  0.32008522  0.40606663  0.73001059    -0.78500
C700        C  0.33202476  0.40309348  0.70097858     1.02100
Cr701      Cr  0.33723835  0.50375557  0.70208279     1.93700
Cr702      Cr  0.32617251  0.02379519  0.77882903     1.93200
Cr703      Cr  0.28196939  0.44978959  0.74172565     1.39100
O704        O  0.31415748  0.49408273  0.74103462    -1.23600
C705        C  0.24680146  0.37283660  0.93090613    -0.06600
C706        C  0.25886180  0.41754702  0.93773394    -0.17800
C707        C  0.23362032  0.45216688  0.93985370     0.10600
C708        C  0.19770804  0.44049150  0.93121988    -0.06600
C709        C  0.18644084  0.39592918  0.93930087    -0.17800
C710        C  0.21188845  0.36107347  0.94026457     0.10600
S711        S  0.24779242  0.51102346  0.94494881    -0.32800
S712        S  0.20055757  0.30389394  0.95440461    -0.32800
H713        H  0.16394612  0.31246288  0.95821014     0.28600
H714        H  0.28410284  0.50144590  0.95298265     0.28600
H715        H  0.28709328  0.42599545  0.93721607     0.19200
H716        H  0.15817514  0.38742954  0.93882702     0.19200
C717        C  0.34009033  0.25160153  0.86276309    -0.06600
C718        C  0.36832239  0.27116414  0.84531456    -0.17800
C719        C  0.36918141  0.26508563  0.81003463     0.10600
C720        C  0.34237471  0.23687169  0.79395691    -0.06600
C721        C  0.32518757  0.20445707  0.81448057    -0.17800
C722        C  0.32667336  0.20991101  0.84996756     0.10600
S723        S  0.40178620  0.29812644  0.78760244    -0.32800
S724        S  0.30710042  0.16839918  0.87814312    -0.32800
H725        H  0.29891113  0.13582173  0.85270643     0.28600
H726        H  0.41190825  0.26089747  0.76775077     0.28600
H727        H  0.38445475  0.29810661  0.85718965     0.19200
H728        H  0.30914483  0.17718349  0.80297486     0.19200
C729        C  0.34780955  0.27535118  0.57967855    -0.06600
C730        C  0.35065214  0.31883705  0.56438054    -0.17800
C731        C  0.35104668  0.32408587  0.52892681     0.10600
C732        C  0.34573355  0.28542727  0.50781427    -0.06600
C733        C  0.34795390  0.24165636  0.52295839    -0.17800
C734        C  0.35044368  0.23635182  0.55877698     0.10600
S735        S  0.35575116  0.38136103  0.51181647    -0.32800
S736        S  0.35448101  0.17930106  0.57610320    -0.32800
H737        H  0.38140565  0.19133780  0.60072186     0.28600
H738        H  0.36960517  0.36913586  0.97929064     0.28600
H739        H  0.35080426  0.34916783  0.58009800     0.19200
H740        H  0.34533504  0.21165178  0.50701386     0.19200
C741        C  0.20114994  0.13072635  0.57372760    -0.06600
C742        C  0.19230691  0.17678276  0.56841223    -0.17800
C743        C  0.21819680  0.20963837  0.57688808     0.10600
C744        C  0.25081087  0.19391671  0.59271993    -0.06600
C745        C  0.26257970  0.15018925  0.58416022    -0.17800
C746        C  0.23724705  0.11916591  0.57074317     0.10600
S747        S  0.20587096  0.26914677  0.57334424    -0.32800
S748        S  0.24955404  0.06335159  0.55605357    -0.32800
H749        H  0.28676531  0.07113667  0.55935886     0.28600
H750        H  0.24154812  0.28510682  0.57374010     0.28600
H751        H  0.16458520  0.18697507  0.56436182     0.19200
H752        H  0.28899876  0.13833293  0.59222724     0.19200
C753        C  0.12025544  0.03037719  0.66781848    -0.06600
C754        C  0.13610458  0.05195737  0.69713455    -0.17800
C755        C  0.14041894  0.03069317  0.72742738     0.10600
C756        C  0.12324872  0.98936438  0.73180524    -0.06600
C757        C  0.10419025  0.96740956  0.70489305    -0.17800
C758        C  0.10431582  0.98665188  0.67175301     0.10600
S759        S  0.16929418  0.05724954  0.75997417    -0.32800
S760        S  0.08664526  0.95411887  0.63612493    -0.32800
H761        H  0.07415126  0.91657633  0.65513055     0.28600
H762        H  0.19194208  0.08091996  0.73797000     0.28600
H763        H  0.15194402  0.08288827  0.69528973     0.19200
H764        H  0.09082247  0.93510030  0.70968470     0.19200
C765        C  0.09828939  0.02560000  0.51008935    -0.06600
C766        C  0.08698940  0.06149703  0.98837547    -0.17800
C767        C  0.08488124  0.05740230  0.95289343     0.10600
C768        C  0.09662476  0.01670899  0.93810036    -0.06600
C769        C  0.10612279  0.97917193  0.95914481    -0.17800
C770        C  0.10916013  0.98373644  0.99463453     0.10600
S771        S  0.06902737  0.60918464  0.92415124    -0.32800
S772        S  0.12937916  0.93747626  0.01922840    -0.32800
H773        H  0.13506130  0.90881715  0.49700856     0.28600
H774        H  0.05761010  0.58350335  0.89543932     0.28600
H775        H  0.07325225  0.09086404  0.50013618     0.19200
H776        H  0.11503916  0.94784249  0.94781102     0.19200
C777        C  0.01190209  0.24468026  0.76462243    -0.06600
C778        C  0.99547391  0.20190334  0.76981859    -0.17800
C779        C  0.95845505  0.19783261  0.76925743     0.10600
C780        C  0.93779112  0.23709077  0.76245420    -0.06600
C781        C  0.95391061  0.27990396  0.75771212    -0.17800
C782        C  0.99101286  0.28434794  0.75900265     0.10600
S783        S  0.93917286  0.14242139  0.77847816    -0.32800
S784        S  0.01089244  0.34081338  0.75523434    -0.32800
H785        H  0.97881974  0.36583476  0.75489903     0.28600
H786        H  0.90819527  0.15906910  0.79309994     0.28600
H787        H  0.01160702  0.17164795  0.77501068     0.19200
H788        H  0.93726740  0.30968342  0.75254062     0.19200
C789        C  0.50730824  0.48955758  0.77145389    -0.06600
C790        C  0.49251765  0.03112437  0.76628673    -0.17800
C791        C  0.45567388  0.03643071  0.76173095     0.10600
C792        C  0.43383914  0.49988427  0.75828601    -0.06600
C793        C  0.44828316  0.45602478  0.76343218    -0.17800
C794        C  0.48502591  0.45042444  0.77042824     0.10600
S795        S  0.43694143  0.09348621  0.76063177    -0.32800
S796        S  0.50334929  0.39355264  0.77638109    -0.32800
H797        H  0.47121675  0.36933360  0.76931385     0.28600
H798        H  0.46832915  0.11678111  0.77187597     0.28600
H799        H  0.50955899  0.06103360  0.76988826     0.19200
H800        H  0.43068840  0.42637966  0.76201091     0.19200
C801        C  0.75294017  0.42679951  0.59901608    -0.06600
C802        C  0.76458222  0.38293814  0.59089087    -0.17800
C803        C  0.73848345  0.34914241  0.58528250     0.10600
C804        C  0.70296778  0.36081994  0.59227136    -0.06600
C805        C  0.69239340  0.40615374  0.58559450    -0.17800
C806        C  0.71883215  0.43985255  0.58565357     0.10600
S807        S  0.75032285  0.29238410  0.57202249    -0.32800
S808        S  0.70644140  0.49883771  0.57872307    -0.32800
H809        H  0.74208788  0.51501803  0.57932815     0.28600
H810        H  0.78653433  0.30284090  0.56693435     0.28600
H811        H  0.79235975  0.37328680  0.59516984     0.19200
H812        H  0.66438399  0.41562468  0.58411104     0.19200
C813        C  0.60549721  0.21258943  0.72771681    -0.06600
C814        C  0.62523542  0.18347026  0.70736823    -0.17800
C815        C  0.62605122  0.19214050  0.67220161     0.10600
C816        C  0.61157441  0.23363826  0.65977584    -0.06600
C817        C  0.58178945  0.24981939  0.67619547    -0.17800
C818        C  0.57903749  0.24067313  0.71103852     0.10600
S819        S  0.64949725  0.15504329  0.64436954    -0.32800
S820        S  0.54423024  0.26965488  0.73249795    -0.32800
H821        H  0.53479900  0.23055496  0.75153086     0.28600
H822        H  0.65730234  0.12090440  0.66922210     0.28600
H823        H  0.64167513  0.15656749  0.71898437     0.19200
H824        H  0.56513833  0.27616224  0.66408421     0.19200
C825        C  0.60149757  0.25428993  0.94101727    -0.06600
C826        C  0.59914377  0.29847369  0.95434525    -0.17800
C827        C  0.60026093  0.30569903  0.98945142     0.10600
C828        C  0.61076210  0.26109195  0.51333492    -0.06600
C829        C  0.60327229  0.22359618  0.99921190    -0.17800
C830        C  0.60023967  0.21625939  0.96364677     0.10600
S831        S  0.60474599  0.35785532  0.50854700    -0.32800
S832        S  0.59647310  0.15872773  0.94768233    -0.32800
H833        H  0.60263816  0.13611988  0.97930269     0.28600
H834        H  0.59281298  0.34487978  0.54082534     0.28600
H835        H  0.59817964  0.32793628  0.93721391     0.19200
H836        H  0.60803425  0.18731294  0.51470687     0.19200
C837        C  0.70002126  0.17296369  0.92818657    -0.06600
C838        C  0.68770396  0.12933303  0.93766173    -0.17800
C839        C  0.71287255  0.09565771  0.94599029     0.10600
C840        C  0.74852258  0.10578811  0.93895599    -0.06600
C841        C  0.76022527  0.15106144  0.94346201    -0.17800
C842        C  0.73508101  0.18593713  0.93944663     0.10600
S843        S  0.69978469  0.03992340  0.96165412    -0.32800
S844        S  0.74927925  0.24514915  0.94173315    -0.32800
H845        H  0.78435954  0.23637616  0.95469218     0.28600
H846        H  0.66411695  0.05201434  0.96713442     0.28600
H847        H  0.66009081  0.11933548  0.93297434     0.19200
H848        H  0.78857257  0.15916649  0.94469166     0.19200
C849        C  0.83572109  0.97875078  0.86974451    -0.06600
C850        C  0.81936602  0.93848329  0.85779233    -0.17800
C851        C  0.82267945  0.43056237  0.82477805     0.10600
C852        C  0.83629818  0.96135972  0.80125362    -0.06600
C853        C  0.86398652  0.98811109  0.81643079    -0.17800
C854        C  0.86511178  0.99454097  0.85168368     0.10600
S855        S  0.79805720  0.38102148  0.80927704    -0.32800
S856        S  0.90078053  0.02818402  0.87147588    -0.32800
H857        H  0.88994693  0.02092117  0.90500438     0.28600
H858        H  0.78976917  0.36262600  0.84133308     0.28600
H859        H  0.80157560  0.91992131  0.87414265     0.19200
H860        H  0.88273923  0.00664477  0.80103954     0.19200
C861        C  0.83962479  0.00865637  0.51540325    -0.06600
C862        C  0.85172012  0.04611991  0.53497932    -0.17800
C863        C  0.85373052  0.04373321  0.57061793     0.10600
C864        C  0.84378593  0.00284167  0.58725648    -0.06600
C865        C  0.83616888  0.96360960  0.56773141    -0.17800
C866        C  0.83342740  0.96633229  0.53180712     0.10600
S867        S  0.86632330  0.09502968  0.59357992    -0.32800
S868        S  0.81721426  0.91786576  0.50732898    -0.32800
H869        H  0.83540574  0.88211469  0.04066660     0.28600
H870        H  0.87270028  0.57809602  0.62458001     0.28600
H871        H  0.85658158  0.07865444  0.52236215     0.19200
H872        H  0.82898652  0.93218994  0.58063566     0.19200
C873        C  0.75934404  0.57119463  0.41418307     0.29500
C874        C  0.80872488  0.51785046  0.38508614     0.29500
C875        C  0.78183963  0.59521756  0.38652051    -0.06700
C876        C  0.78819412  0.55184673  0.43874625    -0.07500
C877        C  0.74467708  0.52626166  0.39821282    -0.07400
C878        C  0.80704536  0.56841800  0.37176287    -0.06700
C879        C  0.81339150  0.52373733  0.42450312    -0.07500
C880        C  0.76845008  0.50178248  0.37995554    -0.07400
C881        C  0.82326439  0.59643128  0.34753173    -0.32800
N882        N  0.81042863  0.63987987  0.34840518     0.13700
C883        C  0.78410412  0.63880766  0.37154327    -0.32800
H884        H  0.76617356  0.66697660  0.37570539     0.15700
C885        C  0.83415621  0.50584219  0.45184130    -0.31700
N886        N  0.82185103  0.52281155  0.48143141     0.12500
C887        C  0.79384364  0.55078564  0.47345626    -0.31700
C888        C  0.74581393  0.98702538  0.35796222    -0.32000
N889        N  0.71121841  0.00011403  0.36112453     0.13000
H890        H  0.75318561  0.96055753  0.34082226     0.15600
C891        C  0.71220063  0.50308551  0.39587162    -0.32000
H892        H  0.68865477  0.51062703  0.40980457     0.15600
H893        H  0.77791701  0.56780747  0.49185351     0.15600
H894        H  0.84110626  0.58554504  0.32838130     0.15700
H895        H  0.85573390  0.97584198  0.44815185     0.15600
O896        O  0.66140083  0.68129270  0.37424792    -0.85900
O897        O  0.65754351  0.63652455  0.31300177    -0.82900
C898        C  0.62440257  0.62751827  0.31419312     0.97600
O899        O  0.60142199  0.65947640  0.32439564    -0.82900
O900        O  0.59705559  0.72906929  0.38368854    -0.85600
C901        C  0.60797377  0.75998163  0.40428661     1.02100
O902        O  0.63128172  0.78943026  0.39554252    -0.78300
O903        O  0.69388143  0.74003135  0.39058743    -0.78500
C904        C  0.68056983  0.70168580  0.39707363     1.02100
O905        O  0.70447969  0.70926631  0.31675659    -0.85900
O906        O  0.64386263  0.70891183  0.27487419    -0.82900
C907        C  0.61440669  0.72520730  0.26288158     0.97600
O908        O  0.59286546  0.74226251  0.28286425    -0.82900
O909        O  0.59069223  0.80733304  0.33432228    -0.85600
C910        C  0.61488637  0.83881787  0.32985817     1.02100
O911        O  0.64765060  0.83183802  0.33437783    -0.78400
O912        O  0.70719739  0.78380294  0.32677740    -0.78500
C913        C  0.71827546  0.74849267  0.31210084     1.02100
Cr914      Cr  0.65380639  0.69647852  0.32476007     1.93700
Cr915      Cr  0.59760625  0.73601322  0.33279640     1.93200
Cr916      Cr  0.66869475  0.78451191  0.36036388     1.39100
O917        O  0.64318761  0.74716726  0.33459661    -1.23600
C918        C  0.67860258  0.83282351  0.10775723     0.29500
C919        C  0.63406076  0.77375735  0.13984496     0.29500
C920        C  0.65267050  0.85586860  0.13233591    -0.06700
C921        C  0.65380966  0.80419315  0.08490117    -0.07500
C922        C  0.69753025  0.79694640  0.13131832    -0.07400
C923        C  0.63010401  0.82571407  0.14901056    -0.06700
C924        C  0.63039551  0.77461355  0.10044549    -0.07500
C925        C  0.67524949  0.76619298  0.14749141    -0.07400
C926        C  0.61745814  0.84996009  0.17656530    -0.32800
N927        N  0.62954867  0.89393673  0.17626683     0.13700
C928        C  0.65269863  0.89694709  0.15040200    -0.32800
H929        H  0.67135169  0.92506942  0.14740316     0.15700
C930        C  0.60733443  0.75803366  0.07434970    -0.31700
N931        N  0.61692082  0.77740779  0.04415167     0.12500
C932        C  0.64593394  0.80442021  0.05063721    -0.31700
C933        C  0.69793300  0.73903948  0.16870469    -0.32000
N934        N  0.73255259  0.75239820  0.16535947     0.13000
H935        H  0.69019736  0.71295090  0.18666476     0.15600
C936        C  0.73227556  0.78897353  0.14383868    -0.32000
H937        H  0.75582080  0.80916520  0.13874019     0.15600
H938        H  0.65956270  0.82451704  0.03174172     0.15600
H939        H  0.60406636  0.83558148  0.19800233     0.15700
H940        H  0.58447399  0.73561834  0.07730984     0.15600
O941        O  0.78574180  0.92729196  0.15264279    -0.85900
O942        O  0.78964817  0.88246623  0.21337813    -0.82900
C943        C  0.82341395  0.87711912  0.21555599     0.97600
O944        O  0.84605112  0.91074241  0.20655448    -0.82900
O945        O  0.84464580  0.48228270  0.14436109    -0.85600
C946        C  0.83021680  0.51163235  0.12378206     1.02100
O947        O  0.80630516  0.53904792  0.13327003    -0.78300
O948        O  0.75087456  0.98528920  0.14153279    -0.78500
C949        C  0.76448672  0.94871224  0.13224635     1.02100
O950        O  0.74169923  0.95478006  0.20999317    -0.85900
O951        O  0.80143967  0.95450768  0.25200332    -0.82900
C952        C  0.82982742  0.97221489  0.26517211     0.97600
O953        O  0.85017009  0.49258270  0.24546908    -0.82900
O954        O  0.85057203  0.55948192  0.19320000    -0.85600
C955        C  0.82585616  0.58933540  0.19842676     1.02100
O956        O  0.79331839  0.58000733  0.19539024    -0.78400
O957        O  0.73717258  0.52673483  0.20727710    -0.78500
C958        C  0.72661363  0.48923109  0.21997487     1.02100
Cr959      Cr  0.79273129  0.94292277  0.20221503     1.93700
Cr960      Cr  0.84561878  0.48768909  0.19543026     1.93200
Cr961      Cr  0.77219990  0.53143864  0.17106096     1.39100
O962        O  0.80303402  0.99487369  0.19342808    -1.23600
O963        O  0.65106128  0.00591256  0.34083948    -0.85900
O964        O  0.59921128  0.55072812  0.31978831    -0.82900
C965        C  0.61549809  0.57959555  0.30173018     0.97600
O966        O  0.62968438  0.56614663  0.27462226    -0.82900
O967        O  0.66854348  0.50949843  0.23183127    -0.85600
C968        C  0.69663667  0.48859431  0.24195819     1.03700
O969        O  0.70013832  0.97302947  0.26533424    -0.78300
O970        O  0.67954146  0.94413578  0.32706560    -0.78500
C971        C  0.67943733  0.98256860  0.34235290     1.02100
O972        O  0.61074636  0.91933048  0.33452221    -0.85900
O973        O  0.56087412  0.96550003  0.29391203    -0.82900
C974        C  0.54816766  0.98827278  0.26874581     0.97600
O975        O  0.56759639  0.01308947  0.25026786    -0.82900
O976        O  0.60940527  0.95623616  0.20968896    -0.85600
C977        C  0.63080225  0.92279690  0.20628161     1.02100
O978        O  0.65401390  0.91360137  0.22954659    -0.78400
O979        O  0.62123525  0.88912535  0.28630160    -0.78500
C980        C  0.60993552  0.88448606  0.31559986     1.02100
Cr981      Cr  0.60591404  0.98462259  0.31686304     1.93700
Cr982      Cr  0.61862478  0.50912115  0.24702541     1.93200
Cr983      Cr  0.66103079  0.93265670  0.27794880     1.39100
O984        O  0.62925747  0.97663444  0.27829088    -1.23600
O985        O  0.79249115  0.75841897  0.18548162    -0.85900
O986        O  0.85110364  0.80317624  0.21431390    -0.82900
C987        C  0.83381032  0.83157293  0.23091918     0.97600
O988        O  0.81938667  0.81844238  0.25830771    -0.82900
O989        O  0.77850720  0.76348220  0.30235411    -0.85600
C990        C  0.74828035  0.75090454  0.28991132     1.02100
O991        O  0.74496391  0.73182551  0.26114876    -0.78300
O992        O  0.76332034  0.69692125  0.19996727    -0.78500
C993        C  0.76395015  0.73514081  0.18426795     1.02100
O994        O  0.83142835  0.67049839  0.19253449    -0.85900
O995        O  0.88314039  0.71654173  0.22971674    -0.82900
C996        C  0.89764752  0.73799338  0.25433732     0.97600
O997        O  0.87962015  0.76062248  0.27484127    -0.82900
O998        O  0.83574308  0.70175950  0.31546286    -0.85600
C999        C  0.81117314  0.67150342  0.31947435     1.02100
O1000       O  0.78605678  0.66780091  0.29742165    -0.78400
O1001       O  0.81744395  0.63996775  0.24076248    -0.78500
C1002       C  0.83007358  0.63548081  0.21193735     1.02100
Cr1003     Cr  0.83765301  0.73625447  0.20858536     1.93700
Cr1004     Cr  0.82785495  0.75935973  0.28492345     1.93200
Cr1005     Cr  0.78088411  0.68695269  0.24900120     1.39100
O1006       O  0.81536109  0.72817105  0.24790472    -1.23600
C1007       C  0.17937826  0.60818847  0.09589360     0.29500
C1008       C  0.13550006  0.55580037  0.13341731     0.29500
C1009       C  0.15321293  0.63567687  0.11818481    -0.06700
C1010       C  0.15399845  0.57499172  0.07590414    -0.07500
C1011       C  0.19917999  0.57610031  0.12214533    -0.07400
C1012       C  0.12835023  0.60866217  0.13381880    -0.06700
C1013       C  0.13091336  0.54751640  0.09481364    -0.07500
C1014       C  0.17682888  0.54787275  0.13930251    -0.07400
C1015       C  0.10992321  0.63594964  0.15609321    -0.32800
N1016       N  0.12708303  0.67651779  0.16028465     0.13700
C1017       C  0.15433778  0.67604811  0.13777668    -0.32800
H1018       H  0.17615538  0.70065661  0.13824442     0.15700
C1019       C  0.10634064  0.52865853  0.07116127    -0.31700
N1020       N  0.11545390  0.54224584  0.03935168     0.12500
C1021       C  0.14409326  0.57071589  0.04212365    -0.31700
C1022       C  0.20053446  0.01581556  0.15891840    -0.32000
N1023       N  0.23545509  0.02737907  0.15628251     0.13000
H1024       H  0.19107241  0.98944719  0.17601965     0.15600
C1025       C  0.23408677  0.56490751  0.13417189    -0.32000
H1026       H  0.25849186  0.58226330  0.12762083     0.15600
H1027       H  0.15595985  0.58845363  0.02095897     0.15600
H1028       H  0.09060944  0.62316694  0.17373089     0.15700
H1029       H  0.08595065  0.00490836  0.07814556     0.15600
O1030       O  0.28406817  0.69682430  0.14189845    -0.85900
O1031       O  0.28810499  0.65234083  0.20279060    -0.82900
C1032       C  0.32184095  0.64748588  0.20609518     0.97600
O1033       O  0.34447634  0.68131135  0.19703980    -0.82900
O1034       O  0.34816887  0.74954523  0.13546290    -0.85600
C1035       C  0.33570212  0.77832280  0.11352901     1.02100
O1036       O  0.31236282  0.80759280  0.12139464    -0.78300
O1037       O  0.25083929  0.75585593  0.12849151    -0.78500
C1038       C  0.26419770  0.71854183  0.12037070     1.02100
O1039       O  0.24020095  0.72404977  0.19922387    -0.85900
O1040       O  0.30088819  0.72408399  0.24185909    -0.82900
C1041       C  0.32921185  0.74321839  0.25434944     0.97600
O1042       O  0.34928337  0.76510212  0.23508681    -0.82900
O1043       O  0.35216461  0.82984965  0.18275021    -0.85600
C1044       C  0.32741019  0.86035704  0.18654645     1.02100
O1045       O  0.29498578  0.85141927  0.18147685    -0.78400
O1046       O  0.23728865  0.79927863  0.19049647    -0.78500
C1047       C  0.22631427  0.76282818  0.20451694     1.02100
Cr1048     Cr  0.29118613  0.71280141  0.19153376     1.93700
Cr1049     Cr  0.34665963  0.75774038  0.18586640     1.93200
Cr1050     Cr  0.27525640  0.80191212  0.15677064     1.39100
O1051       O  0.30100783  0.76501550  0.18256673    -1.23600
C1052       C  0.26716881  0.84224665  0.40624653     0.29500
C1053       C  0.31227936  0.78484369  0.37556609     0.29500
C1054       C  0.29509162  0.86658348  0.38405781    -0.06700
C1055       C  0.28958626  0.81146863  0.42969085    -0.07500
C1056       C  0.24877262  0.80858006  0.38106636    -0.07400
C1057       C  0.31797403  0.83745799  0.36772711    -0.06700
C1058       C  0.31357329  0.78290151  0.41500207    -0.07500
C1059       C  0.27120929  0.77822407  0.36562348    -0.07400
C1060       C  0.33157602  0.86367298  0.34091868    -0.32800
N1061       N  0.31987436  0.90771404  0.34178832     0.13700
C1062       C  0.29606222  0.90879602  0.36704935    -0.32800
H1063       H  0.27727775  0.93639530  0.37001755     0.15700
C1064       C  0.33535626  0.76555205  0.44198904    -0.31700
N1065       N  0.32399495  0.78319134  0.47176622     0.12500
C1066       C  0.29532727  0.80989422  0.46417599    -0.31700
C1067       C  0.24843339  0.75002880  0.34525738    -0.32000
N1068       N  0.21373509  0.76249643  0.34858604     0.13000
H1069       H  0.25599566  0.72292623  0.32867737     0.15600
C1070       C  0.21408379  0.79954213  0.36916579    -0.32000
H1071       H  0.19049041  0.81868187  0.37505941     0.15600
H1072       H  0.28121794  0.82961866  0.48248657     0.15600
H1073       H  0.34524722  0.85059715  0.31949053     0.15700
H1074       H  0.35885796  0.74447605  0.43992186     0.15600
O1075       O  0.16558974  0.93652922  0.37914155    -0.85900
O1076       O  0.16028550  0.89170007  0.31882598    -0.82900
C1077       C  0.12640188  0.88707851  0.31437369     0.97600
O1078       O  0.10380793  0.92016040  0.32324980    -0.82900
O1079       O  0.09642230  0.49142286  0.38041021    -0.85600
C1080       C  0.10782258  0.52236683  0.40071425     1.02100
O1081       O  0.13059445  0.55238555  0.39180419    -0.78300
O1082       O  0.19443446  0.99914295  0.39419021    -0.78500
C1083       C  0.18338780  0.95960448  0.40126710     1.02100
O1084       O  0.20914390  0.96639455  0.32015634    -0.85900
O1085       O  0.14949824  0.96435318  0.28037027    -0.82900
C1086       C  0.12243154  0.98449837  0.26705640     0.97600
O1087       O  0.09795666  0.49944234  0.28077372    -0.82900
O1088       O  0.09246061  0.56841362  0.32843534    -0.85600
C1089       C  0.11680105  0.59944891  0.32276765     1.02100
O1090       O  0.14923174  0.59209042  0.32919933    -0.78400
O1091       O  0.20837671  0.54200095  0.32568507    -0.78500
C1092       C  0.21994624  0.50625745  0.31192167     1.02100
Cr1093     Cr  0.15804403  0.95236327  0.32972178     1.93700
Cr1094     Cr  0.09899346  0.49624854  0.32994826     1.93200
Cr1095     Cr  0.16903504  0.54546337  0.35802217     1.39100
O1096       O  0.14691818  0.00422128  0.33764283    -1.23600
O1097       O  0.15297839  0.76637850  0.33248453    -0.85900
O1098       O  0.09484356  0.81483727  0.30706741    -0.82900
C1099       C  0.11555485  0.84443326  0.29503175     0.97600
O1100       O  0.13152094  0.83466699  0.26804845    -0.82900
O1101       O  0.16866002  0.78557301  0.21872918    -0.85600
C1102       C  0.19673437  0.76362932  0.22711297     1.02100
O1103       O  0.19870881  0.73754423  0.25284343    -0.78300
O1104       O  0.18176798  0.70669628  0.31454120    -0.78500
C1105       C  0.18167842  0.74415628  0.33120096     1.02100
O1106       O  0.11262199  0.68093133  0.32577970    -0.85900
O1107       O  0.06226217  0.73019753  0.28698293    -0.82900
C1108       C  0.04870111  0.75479288  0.26318342     0.97600
O1109       O  0.06715851  0.78284719  0.24607466    -0.82900
O1110       O  0.10872403  0.73390763  0.19924853    -0.85600
C1111       C  0.12834794  0.69939305  0.19334573     1.02100
O1112       O  0.14893787  0.68297285  0.21688405    -0.78400
O1113       O  0.12204432  0.65086211  0.27719608    -0.78500
C1114       C  0.11214028  0.64572936  0.30720140     1.02100
Cr1115     Cr  0.10740118  0.74727196  0.30972114     1.93700
Cr1116     Cr  0.11935898  0.78189940  0.23610011     1.93200
Cr1117     Cr  0.15996583  0.69731703  0.26624368     1.39100
O1118       O  0.12903950  0.74217438  0.26988974    -1.23600
O1119       O  0.29479563  0.03047323  0.17885608    -0.85900
O1120       O  0.35151783  0.57431703  0.20839007    -0.82900
C1121       C  0.33197537  0.60240835  0.22293619     0.97600
O1122       O  0.31565683  0.58890862  0.24931807    -0.82900
O1123       O  0.27741960  0.53069782  0.29596387    -0.85600
C1124       C  0.24841615  0.51047335  0.28731924     1.02100
O1125       O  0.24596167  0.99411851  0.26099165    -0.78300
O1126       O  0.26201002  0.97196486  0.19492443    -0.78500
C1127       C  0.26536103  0.00902185  0.17739134     1.02100
O1128       O  0.33220391  0.94254273  0.18361695    -0.85900
O1129       O  0.38326330  0.98462636  0.22501269    -0.82900
C1130       C  0.39779780  0.00576746  0.24976203     0.97600
O1131       O  0.37813041  0.53388328  0.26666859    -0.82900
O1132       O  0.33948690  0.97252848  0.30909829    -0.85600
C1133       C  0.31815756  0.93837772  0.31227517     1.02100
O1134       O  0.29370912  0.93089594  0.28985299    -0.78400
O1135       O  0.31920681  0.90902369  0.23056281    -0.78500
C1136       C  0.33122708  0.90619985  0.20150969     1.02100
Cr1137     Cr  0.33892188  0.00687245  0.20283967     1.93700
Cr1138     Cr  0.32636625  0.53053698  0.27682620     1.93200
Cr1139     Cr  0.28292964  0.95470249  0.24289412     1.39100
O1140       O  0.31615669  0.99770100  0.24198568    -1.23600
C1141       C  0.24383871  0.87221729  0.42666285    -0.06600
C1142       C  0.25616588  0.91576412  0.43691068    -0.17800
C1143       C  0.23092498  0.94873312  0.44418523     0.10600
C1144       C  0.19525007  0.93857212  0.43412078    -0.06600
C1145       C  0.18403445  0.89322610  0.43930373    -0.17800
C1146       C  0.20933434  0.85868318  0.43649998     0.10600
S1147       S  0.24424388  0.00567933  0.45688474    -0.32800
S1148       S  0.19809314  0.79986571  0.44647913    -0.32800
H1149       H  0.16326360  0.80881516  0.45678994     0.28600
H1150       H  0.28054575  0.99503314  0.46395147     0.28600
H1151       H  0.28434434  0.92461544  0.43685867     0.19200
H1152       H  0.15581128  0.88454813  0.43868737     0.19200
C1153       C  0.33797312  0.75153252  0.35986663    -0.06600
C1154       C  0.36673906  0.77036932  0.34283531    -0.17800
C1155       C  0.36713107  0.76570322  0.30731634     0.10600
C1156       C  0.33961153  0.73878006  0.29098266    -0.06600
C1157       C  0.32216780  0.70604129  0.31101786    -0.17800
C1158       C  0.32389675  0.71049109  0.34658385     0.10600
S1159       S  0.40018681  0.79762439  0.28427704    -0.32800
S1160       S  0.30295185  0.66944890  0.37415792    -0.32800
H1161       H  0.29522174  0.63700745  0.34851496     0.28600
H1162       H  0.42195426  0.81000141  0.31302065     0.28600
H1163       H  0.38336838  0.79623764  0.35539514     0.19200
H1164       H  0.30566324  0.67947871  0.29914239     0.19200
C1165       C  0.34673352  0.77802104  0.07757659    -0.06600
C1166       C  0.34713386  0.82010784  0.05999288    -0.17800
C1167       C  0.34604010  0.82202706  0.02438591     0.10600
C1168       C  0.34184200  0.78112287  0.00556320    -0.06600
C1169       C  0.34631169  0.73906201  0.02282030    -0.17800
C1170       C  0.35028270  0.73729392  0.05868855     0.10600
S1171       S  0.34708177  0.87790889  0.00422071    -0.32800
S1172       S  0.35753721  0.68221712  0.07869096    -0.32800
H1173       H  0.38531116  0.69811106  0.10107492     0.28600
H1174       H  0.35834711  0.86209539  0.47565365     0.28600
H1175       H  0.34647515  0.85183209  0.07406049     0.19200
H1176       H  0.34439422  0.70751997  0.00854322     0.19200
C1177       C  0.20206796  0.63553012  0.07184000    -0.06600
C1178       C  0.19361187  0.68165510  0.06571531    -0.17800
C1179       C  0.22059517  0.71421196  0.07108038     0.10600
C1180       C  0.25307738  0.69884837  0.08709349    -0.06600
C1181       C  0.26403532  0.65432793  0.07975226    -0.17800
C1182       C  0.23793814  0.62296020  0.06830320     0.10600
S1183       S  0.21062337  0.77381025  0.06339347    -0.32800
S1184       S  0.24932580  0.56610785  0.05501486    -0.32800
H1185       H  0.28661101  0.57365496  0.05655179     0.28600
H1186       H  0.24687312  0.78760051  0.06438565     0.28600
H1187       H  0.16600714  0.69246838  0.06203835     0.19200
H1188       H  0.29042288  0.64228784  0.08769067     0.19200
C1189       C  0.12032431  0.53402813  0.16481384    -0.06600
C1190       C  0.13442244  0.55673431  0.19435092    -0.17800
C1191       C  0.13872724  0.53592670  0.22488832     0.10600
C1192       C  0.12285653  0.49373984  0.22932685    -0.06600
C1193       C  0.10595037  0.47011739  0.20195992    -0.17800
C1194       C  0.10669488  0.48896794  0.16865178     0.10600
S1195       S  0.16659612  0.56380956  0.25751031    -0.32800
S1196       S  0.09336419  0.45426764  0.13262102    -0.32800
H1197       H  0.08624669  0.41397954  0.15124382     0.28600
H1198       H  0.18903305  0.58802532  0.23561967     0.28600
H1199       H  0.14930250  0.58842883  0.19271023     0.19200
H1200       H  0.09397672  0.43685219  0.20651447     0.19200
C1201       C  0.09881026  0.53025670  0.00697103    -0.06600
C1202       C  0.08682044  0.56494902  0.48764462    -0.17800
C1203       C  0.08592923  0.56288141  0.45198753     0.10600
C1204       C  0.09654915  0.52229931  0.43622241    -0.06600
C1205       C  0.10357835  0.48308862  0.45640395    -0.17800
C1206       C  0.10500743  0.48544395  0.49212035     0.10600
S1207       S  0.06317668  0.10212179  0.42781153    -0.32800
S1208       S  0.12126053  0.43617607  0.51596035    -0.32800
H1209       H  0.12206825  0.40732798  0.99453298     0.28600
H1210       H  0.05554420  0.07603856  0.39836017     0.28600
H1211       H  0.08094608  0.59908646  0.99626688     0.19200
H1212       H  0.11153499  0.45172767  0.44442024     0.19200
C1213       C  0.01032218  0.75210249  0.25713084    -0.06600
C1214       C  0.99504849  0.70859238  0.25245932    -0.17800
C1215       C  0.95815960  0.70255082  0.25222051     0.10600
C1216       C  0.93638586  0.74094396  0.25695946    -0.06600
C1217       C  0.95170109  0.78466341  0.26097442    -0.17800
C1218       C  0.98868292  0.79075315  0.26085119     0.10600
S1219       S  0.94077087  0.64507372  0.24708391    -0.32800
S1220       S  0.00796935  0.84716662  0.26737259    -0.32800
H1221       H  0.97550923  0.87143228  0.26553015     0.28600
H1222       H  0.91183597  0.65050001  0.26838737     0.28600
H1223       H  0.01209678  0.67899619  0.24998327     0.19200
H1224       H  0.93457051  0.81404819  0.26382979     0.19200
C1225       C  0.50977257  0.99081792  0.26306679    -0.06600
C1226       C  0.49277332  0.53727203  0.27283278    -0.17800
C1227       C  0.45606006  0.54290726  0.26653433     0.10600
C1228       C  0.43605673  0.00153263  0.25590826    -0.06600
C1229       C  0.45068708  0.95748322  0.25857949    -0.17800
C1230       C  0.48758958  0.95165655  0.26203550     0.10600
S1231       S  0.43697130  0.59943523  0.27003890    -0.32800
S1232       S  0.50466571  0.89394116  0.26364955    -0.32800
H1233       H  0.53650273  0.90395372  0.24715932     0.28600
H1234       H  0.46900391  0.62280736  0.27911179     0.28600
H1235       H  0.50935513  0.56620030  0.28075190     0.19200
H1236       H  0.43327642  0.92760477  0.25745727     0.19200
C1237       C  0.75200669  0.92932738  0.09936099    -0.06600
C1238       C  0.76382654  0.88560088  0.09101540    -0.17800
C1239       C  0.73800377  0.85271922  0.08168953     0.10600
C1240       C  0.70199900  0.86374234  0.08681380    -0.06600
C1241       C  0.69194496  0.90943501  0.08146627    -0.17800
C1242       C  0.71811523  0.94322473  0.08561328     0.10600
S1243       S  0.75034665  0.79729355  0.06614757    -0.32800
S1244       S  0.70544357  0.00237243  0.08015056    -0.32800
H1245       H  0.74100505  0.01855897  0.07921479     0.28600
H1246       H  0.78738795  0.80649185  0.06638364     0.28600
H1247       H  0.79139352  0.87560500  0.09632564     0.19200
H1248       H  0.66394612  0.91888756  0.07897449     0.19200
C1249       C  0.60501001  0.72344318  0.22586053    -0.06600
C1250       C  0.62297698  0.69224909  0.20569523    -0.17800
C1251       C  0.62239923  0.69870761  0.17020761     0.10600
C1252       C  0.60866486  0.74012434  0.15688236    -0.06600
C1253       C  0.57998599  0.75847356  0.17383960    -0.17800
C1254       C  0.57872580  0.75198259  0.20930881     0.10600
S1255       S  0.64297484  0.65844846  0.14267525    -0.32800
S1256       S  0.54684437  0.78450363  0.23239078    -0.32800
H1257       H  0.52844251  0.80407933  0.20371590     0.28600
H1258       H  0.65047164  0.62524867  0.16831199     0.28600
H1259       H  0.63884179  0.66498174  0.21757039     0.19200
H1260       H  0.56405074  0.78512772  0.16127972     0.19200
C1261       C  0.59477422  0.76258774  0.43957868    -0.06600
C1262       C  0.59263268  0.80610599  0.45419006    -0.17800
C1263       C  0.59123339  0.81111559  0.48951778     0.10600
C1264       C  0.60053878  0.77268978  0.01028443    -0.06600
C1265       C  0.59226098  0.72871257  0.49668304    -0.17800
C1266       C  0.58987788  0.72370901  0.46093794     0.10600
S1267       S  0.59644009  0.86923618  0.00343941    -0.32800
S1268       S  0.58173812  0.66729681  0.44441950    -0.32800
H1269       H  0.55623089  0.68220360  0.41922163     0.28600
H1270       H  0.58419026  0.85721551  0.03579968     0.28600
H1271       H  0.59351849  0.83653077  0.43810812     0.19200
H1272       H  0.59436312  0.69928514  0.01319303     0.19200
C1273       C  0.68891785  0.67833725  0.43034972    -0.06600
C1274       C  0.67367544  0.63487242  0.43219358    -0.17800
C1275       C  0.69523028  0.60204888  0.41869158     0.10600
C1276       C  0.73243539  0.60336567  0.42851468    -0.06600
C1277       C  0.74562068  0.64314889  0.44537144    -0.17800
C1278       C  0.72396867  0.68246696  0.44481821     0.10600
S1279       S  0.67869438  0.58699389  0.37614582    -0.32800
S1280       S  0.74233278  0.73774391  0.45608375    -0.32800
H1281       H  0.77538770  0.72131258  0.46969440     0.28600
H1282       H  0.71069884  0.59763089  0.36021598     0.28600
H1283       H  0.64540104  0.63203280  0.42531112     0.19200
H1284       H  0.77371768  0.64583090  0.45321638     0.19200
C1285       C  0.83670839  0.48688015  0.37016382    -0.06600
C1286       C  0.82450564  0.44408159  0.35883594    -0.17800
C1287       C  0.81961346  0.93816280  0.32373582     0.10600
C1288       C  0.83873786  0.46837927  0.30179919    -0.06600
C1289       C  0.86363975  0.49966200  0.31646181    -0.17800
C1290       C  0.86431556  0.50674627  0.35170026     0.10600
S1291       S  0.79275452  0.89083196  0.30744591    -0.32800
S1292       S  0.89678419  0.54558406  0.37108384    -0.32800
H1293       H  0.88642316  0.53764020  0.40467923     0.28600
H1294       H  0.78180367  0.87400848  0.33912642     0.28600
H1295       H  0.80867470  0.42307871  0.37547605     0.19200
H1296       H  0.88042240  0.52069836  0.30069467     0.19200
C1297       C  0.83544231  0.51837726  0.01518144    -0.06600
C1298       C  0.84173383  0.55787992  0.03469279    -0.17800
C1299       C  0.84386585  0.55596899  0.07037807     0.10600
C1300       C  0.83954521  0.51352703  0.08740917    -0.06600
C1301       C  0.83731520  0.47329861  0.06799606    -0.17800
C1302       C  0.83478868  0.47533939  0.03196437     0.10600
S1303       S  0.85020381  0.60928060  0.09278772    -0.32800
S1304       S  0.82637990  0.42375498  0.00789787    -0.32800
H1305       H  0.79409109  0.44193841  0.48618189     0.28600
H1306       H  0.87443588  0.08400166  0.12053227     0.28600
H1307       H  0.84260056  0.59095512  0.02189394     0.19200
H1308       H  0.83442761  0.44073753  0.08105569     0.19200
C1309       C  0.75820617  0.56818287  0.91243402     0.29500
C1310       C  0.80801767  0.51425898  0.88435623     0.29500
C1311       C  0.78056418  0.59130524  0.88418031    -0.06700
C1312       C  0.78718065  0.54959761  0.93719120    -0.07500
C1313       C  0.74372555  0.52297139  0.89704202    -0.07400
C1314       C  0.80613368  0.56431239  0.87004779    -0.06700
C1315       C  0.81256738  0.52141908  0.92355148    -0.07500
C1316       C  0.76780372  0.49798475  0.87933818    -0.07400
C1317       C  0.82233969  0.59171557  0.84540931    -0.32800
N1318       N  0.80898139  0.63499237  0.84540217     0.13700
C1319       C  0.78252829  0.63433902  0.86837682    -0.32800
H1320       H  0.76439677  0.66248169  0.87196831     0.15700
C1321       C  0.83414244  0.50578876  0.95112193    -0.31700
N1322       N  0.82209011  0.52426356  0.98030511     0.12500
C1323       C  0.79341722  0.55082368  0.97178731    -0.31700
C1324       C  0.74575385  0.98125706  0.85802215    -0.32000
N1325       N  0.71151465  0.99559720  0.86141769     0.13000
H1326       H  0.75226083  0.95393731  0.84117910     0.15600
C1327       C  0.71172450  0.49904513  0.89521758    -0.32000
H1328       H  0.68865561  0.50482200  0.91018216     0.15600
H1329       H  0.77759900  0.56877101  0.98979481     0.15600
H1330       H  0.84062528  0.58047052  0.82676467     0.15700
H1331       H  0.85737194  0.96856421  0.94898354     0.15600
O1332       O  0.66414316  0.67776673  0.87412838    -0.85900
O1333       O  0.65826317  0.63062966  0.81400525    -0.82900
C1334       C  0.62491361  0.62231413  0.81456252     0.97600
O1335       O  0.60207498  0.65482217  0.82427301    -0.82900
O1336       O  0.59919860  0.72495054  0.88376220    -0.85600
C1337       C  0.61025498  0.75683896  0.90346698     1.02100
O1338       O  0.63311156  0.78623235  0.89365875    -0.78300
O1339       O  0.69598785  0.73806678  0.88820990    -0.78500
C1340       C  0.68334868  0.69985788  0.89601503     1.02100
O1341       O  0.70453812  0.70462821  0.81478162    -0.85900
O1342       O  0.64274137  0.70202790  0.77451336    -0.82900
C1343       C  0.61357771  0.71975531  0.76294935     0.97600
O1344       O  0.59298545  0.73798887  0.78321210    -0.82900
O1345       O  0.59114669  0.80289618  0.83457299    -0.85600
C1346       C  0.61500741  0.83428742  0.82869386     1.02100
O1347       O  0.64778206  0.82688254  0.83121342    -0.78400
O1348       O  0.70681436  0.77957182  0.82360462    -0.78500
C1349       C  0.71768864  0.74401719  0.80929214     1.02100
Cr1350     Cr  0.65449273  0.69119995  0.82456387     1.93700
Cr1351     Cr  0.59836523  0.73147610  0.83284778     1.93200
Cr1352     Cr  0.66958997  0.78088689  0.85783753     1.39100
O1353       O  0.64384688  0.74228131  0.83359876    -1.23600
C1354       C  0.67520426  0.83221928  0.60783790     0.29500
C1355       C  0.63134482  0.77294186  0.64035743     0.29500
C1356       C  0.64987530  0.85506462  0.63307265    -0.06700
C1357       C  0.64979071  0.80408785  0.58522783    -0.07500
C1358       C  0.69465644  0.79591700  0.63088287    -0.07400
C1359       C  0.62761571  0.82480606  0.64994380    -0.06700
C1360       C  0.62685658  0.77418969  0.60102195    -0.07500
C1361       C  0.67260570  0.76516241  0.64728349    -0.07400
C1362       C  0.61490863  0.84906766  0.67747003    -0.32800
N1363       N  0.62681925  0.89315101  0.67702418     0.13700
C1364       C  0.64976753  0.89624945  0.65098737    -0.32800
H1365       H  0.66819774  0.92457194  0.64773944     0.15700
C1366       C  0.60341605  0.75755543  0.57523604    -0.31700
N1367       N  0.61217490  0.77745751  0.54496647     0.12500
C1368       C  0.64094233  0.80500125  0.55110052    -0.31700
C1369       C  0.69551046  0.73726164  0.66774285    -0.32000
N1370       N  0.73016937  0.74987917  0.66367361     0.13000
H1371       H  0.68792206  0.71095874  0.68559962     0.15600
C1372       C  0.72967401  0.78698778  0.64252990    -0.32000
H1373       H  0.75328428  0.80679834  0.63697339     0.15600
H1374       H  0.65382405  0.82569276  0.53204459     0.15600
H1375       H  0.60165461  0.83462717  0.69897103     0.15700
H1376       H  0.58093178  0.73460089  0.57846223     0.15600
O1377       O  0.78166474  0.92475535  0.65194881    -0.85900
O1378       O  0.78608650  0.87845042  0.71227691    -0.82900
C1379       C  0.81986267  0.87248970  0.71367447     0.97600
O1380       O  0.84254103  0.90590423  0.70465460    -0.82900
O1381       O  0.84513234  0.47528158  0.64538565    -0.85600
C1382       C  0.83091970  0.50433452  0.62446256     1.02100
O1383       O  0.80678962  0.53169826  0.63344611    -0.78300
O1384       O  0.74726361  0.98346606  0.64195131    -0.78500
C1385       C  0.76047798  0.94698830  0.63201188     1.02100
O1386       O  0.73862587  0.95274035  0.71000177    -0.85900
O1387       O  0.79881320  0.94983690  0.75131944    -0.82900
C1388       C  0.82769569  0.96631257  0.76435882     0.97600
O1389       O  0.84965435  0.48714317  0.74637508    -0.82900
O1390       O  0.85010237  0.55372487  0.69345921    -0.85600
C1391       C  0.82509058  0.58367872  0.69756395     1.02100
O1392       O  0.79266653  0.57385207  0.69451679    -0.78400
O1393       O  0.73658896  0.52094636  0.70641960    -0.78500
C1394       C  0.72587942  0.48393647  0.71967028     1.02100
Cr1395     Cr  0.78944482  0.93932767  0.70155830     1.93700
Cr1396     Cr  0.84546302  0.48166814  0.69640348     1.93200
Cr1397     Cr  0.77219270  0.52458088  0.67078989     1.39100
O1398       O  0.80048511  0.99118838  0.69303101    -1.23600
O1399       O  0.65078625  0.00165676  0.84253398    -0.85900
O1400       O  0.59933667  0.54575164  0.82004786    -0.82900
C1401       C  0.61539747  0.57460707  0.80175987     0.97600
O1402       O  0.62877561  0.56122465  0.77417027    -0.82900
O1403       O  0.66723878  0.50380161  0.73083935    -0.85600
C1404       C  0.69583670  0.48433814  0.74162019     1.03700
O1405       O  0.69845137  0.97264235  0.76633012    -0.78300
O1406       O  0.67888918  0.94034234  0.82749690    -0.78500
C1407       C  0.67919256  0.97841710  0.84324203     1.02100
O1408       O  0.61029323  0.91468757  0.83512788    -0.85900
O1409       O  0.55962856  0.96217868  0.79636345    -0.82900
C1410       C  0.54641260  0.98550052  0.77170511     0.97600
O1411       O  0.56547441  0.01089590  0.75326767    -0.82900
O1412       O  0.60645497  0.95428329  0.71153763    -0.85600
C1413       C  0.62849795  0.92181618  0.70713251     1.02100
O1414       O  0.65279294  0.91339637  0.72953928    -0.78400
O1415       O  0.62077292  0.88632408  0.78619354    -0.78500
C1416       C  0.60963942  0.88050701  0.81548628     1.02100
Cr1417     Cr  0.60519831  0.98070864  0.81882385     1.93700
Cr1418     Cr  0.61735343  0.50363636  0.74698172     1.93200
Cr1419     Cr  0.66005927  0.93073731  0.77831701     1.39100
O1420       O  0.62783842  0.97394850  0.77974325    -1.23600
O1421       O  0.79071244  0.75378708  0.68243590    -0.85900
O1422       O  0.84830107  0.79877644  0.71161445    -0.82900
C1423       C  0.83065568  0.82671265  0.72843159     0.97600
O1424       O  0.81694827  0.81332030  0.75606523    -0.82900
O1425       O  0.77743844  0.75782586  0.79986846    -0.85600
C1426       C  0.74715377  0.74660178  0.78704011     1.02100
O1427       O  0.74351500  0.72842688  0.75803041    -0.78300
O1428       O  0.76109654  0.69292153  0.69716112    -0.78500
C1429       C  0.76182357  0.73132937  0.68165300     1.02100
O1430       O  0.82994135  0.66514721  0.69031708    -0.85900
O1431       O  0.88132014  0.71190504  0.72702853    -0.82900
C1432       C  0.89564981  0.73329077  0.75173889     0.97600
O1433       O  0.87763071  0.75631114  0.77188563    -0.82900
O1434       O  0.83467829  0.69611689  0.81200954    -0.85600
C1435       C  0.80978544  0.66640353  0.81634233     1.02100
O1436       O  0.78403140  0.66377117  0.79482273    -0.78400
O1437       O  0.81501457  0.63538965  0.73854002    -0.78500
C1438       C  0.82850684  0.63047871  0.71016795     1.02100
Cr1439     Cr  0.83577575  0.73146128  0.70578190     1.93700
Cr1440     Cr  0.82624855  0.75422112  0.78216706     1.93200
Cr1441     Cr  0.77877446  0.68279437  0.74624975     1.39100
O1442       O  0.81352997  0.72346751  0.74506195    -1.23600
C1443       C  0.17810816  0.60458092  0.59728601     0.29500
C1444       C  0.13409072  0.55269949  0.63476930     0.29500
C1445       C  0.15137079  0.63221975  0.61895123    -0.06700
C1446       C  0.15367919  0.57029909  0.57751218    -0.07500
C1447       C  0.19798869  0.57345498  0.62410831    -0.07400
C1448       C  0.12626505  0.60536793  0.63432055    -0.06700
C1449       C  0.13035025  0.54321824  0.59629579    -0.07500
C1450       C  0.17553928  0.54571768  0.64165788    -0.07400
C1451       C  0.10738809  0.63285062  0.65611487    -0.32800
N1452       N  0.12495754  0.67301707  0.66092792     0.13700
C1453       C  0.15255633  0.67234887  0.63882877    -0.32800
H1454       H  0.17467566  0.69650493  0.63987794     0.15700
C1455       C  0.10558130  0.52513473  0.57242623    -0.31700
N1456       N  0.11565327  0.53749673  0.54061396     0.12500
C1457       C  0.14457563  0.56536339  0.54367749    -0.31700
C1458       C  0.19753829  0.01212089  0.66101343    -0.32000
N1459       N  0.23263293  0.02262525  0.65775161     0.13000
H1460       H  0.18794536  0.98601041  0.67825060     0.15600
C1461       C  0.23294025  0.56174380  0.63568036    -0.32000
H1462       H  0.25741370  0.57829505  0.62843157     0.15600
H1463       H  0.15675526  0.58301026  0.52264404     0.15600
H1464       H  0.08767463  0.62017610  0.67338774     0.15700
H1465       H  0.08117357  0.00536874  0.57902362     0.15600
O1466       O  0.28154848  0.69299505  0.64435789    -0.85900
O1467       O  0.28596250  0.64849460  0.70523003    -0.82900
C1468       C  0.31972414  0.64341244  0.70749253     0.97600
O1469       O  0.34209850  0.67703271  0.69771424    -0.82900
O1470       O  0.34455762  0.74508017  0.63585435    -0.85600
C1471       C  0.33090434  0.77300811  0.61386209     1.02100
O1472       O  0.30664719  0.80105715  0.62164163    -0.78300
O1473       O  0.24556769  0.74984911  0.63359600    -0.78500
C1474       C  0.26020327  0.71417270  0.62394597     1.02100
O1475       O  0.23795251  0.72036520  0.70173911    -0.85900
O1476       O  0.29892139  0.72064223  0.74362924    -0.82900
C1477       C  0.32767846  0.73911835  0.75561112     0.97600
O1478       O  0.34787402  0.76034704  0.73595085    -0.82900
O1479       O  0.34998515  0.82499992  0.68274274    -0.85600
C1480       C  0.32568057  0.85627248  0.68556955     1.02100
O1481       O  0.29305554  0.84805014  0.68091495    -0.78400
O1482       O  0.23579150  0.79595402  0.69464246    -0.78500
C1483       C  0.22441469  0.75913688  0.70784293     1.02100
Cr1484     Cr  0.28888889  0.70895947  0.69375412     1.93700
Cr1485     Cr  0.34414108  0.75324233  0.68645984     1.93200
Cr1486     Cr  0.27171396  0.79722329  0.65898342     1.39100
O1487       O  0.29849884  0.76107172  0.68442843    -1.23600
C1488       C  0.26443708  0.83660023  0.90670796     0.29500
C1489       C  0.30980852  0.77910322  0.87631451     0.29500
C1490       C  0.29157524  0.86071589  0.88349801    -0.06700
C1491       C  0.28780138  0.80713049  0.93037775    -0.07500
C1492       C  0.24614246  0.80167192  0.88246587    -0.07400
C1493       C  0.31455365  0.83155082  0.86744677    -0.06700
C1494       C  0.31185179  0.77855164  0.91570612    -0.07500
C1495       C  0.26865236  0.77124131  0.86716169    -0.07400
C1496       C  0.32895919  0.85777286  0.84111250    -0.32800
N1497       N  0.31743868  0.90187727  0.84183691     0.13700
C1498       C  0.29320573  0.90312639  0.86678634    -0.32800
H1499       H  0.27475885  0.93108075  0.86979426     0.15700
C1500       C  0.33512943  0.76356459  0.94230992    -0.31700
N1501       N  0.32463334  0.78244141  0.97194182     0.12500
C1502       C  0.29513342  0.80782760  0.96468623    -0.31700
C1503       C  0.24583538  0.74273902  0.84699415    -0.32000
N1504       N  0.21108845  0.75528804  0.85023814     0.13000
H1505       H  0.25351224  0.71572175  0.83033831     0.15600
C1506       C  0.21149345  0.79252731  0.87059791    -0.32000
H1507       H  0.18797330  0.81205808  0.87608460     0.15600
H1508       H  0.28154852  0.82829959  0.98292492     0.15600
H1509       H  0.34319754  0.84480963  0.82002076     0.15700
H1510       H  0.35907115  0.74339963  0.93995095     0.15600
O1511       O  0.16218349  0.93163709  0.87978598    -0.85900
O1512       O  0.15735985  0.88491342  0.82077580    -0.82900
C1513       C  0.12344607  0.88121339  0.81599193     0.97600
O1514       O  0.10121804  0.91515942  0.82394078    -0.82900
O1515       O  0.09535686  0.48648015  0.88055626    -0.85600
C1516       C  0.10639933  0.51788947  0.90064495     1.02100
O1517       O  0.12937837  0.54769447  0.89184789    -0.78300
O1518       O  0.19251079  0.99343672  0.89382302    -0.78500
C1519       C  0.18064243  0.95447591  0.90149951     1.02100
O1520       O  0.20725343  0.95853367  0.82072631    -0.85900
O1521       O  0.14847003  0.95581573  0.78031109    -0.82900
C1522       C  0.12186414  0.97597039  0.76621720     0.97600
O1523       O  0.09803731  0.49348539  0.78082100    -0.82900
O1524       O  0.09079705  0.56249684  0.82833414    -0.85600
C1525       C  0.11468203  0.59410024  0.82290876     1.02100
O1526       O  0.14723014  0.58757863  0.82935772    -0.78400
O1527       O  0.20698600  0.53858486  0.82562564    -0.78500
C1528       C  0.21916636  0.50272189  0.81254735     1.02100
Cr1529     Cr  0.15585961  0.94591052  0.83008097     1.93700
Cr1530     Cr  0.09843242  0.49075795  0.83005910     1.93200
Cr1531     Cr  0.16780237  0.54144174  0.85810740     1.39100
O1532       O  0.14548720  0.99840765  0.83683683    -1.23600
O1533       O  0.15039400  0.76028008  0.83388277    -0.85900
O1534       O  0.09194825  0.80903674  0.80882430    -0.82900
C1535       C  0.11242232  0.83881753  0.79670382     0.97600
O1536       O  0.12848043  0.82927468  0.76978828    -0.82900
O1537       O  0.16645051  0.78108791  0.72116613    -0.85600
C1538       C  0.19449741  0.75925536  0.72987721     1.02100
O1539       O  0.19604440  0.73214583  0.75500083    -0.78300
O1540       O  0.17858010  0.70012713  0.81594552    -0.78500
C1541       C  0.17888384  0.73753312  0.83268736     1.02100
O1542       O  0.11003002  0.67512641  0.82659306    -0.85900
O1543       O  0.05964467  0.72461463  0.78822635    -0.82900
C1544       C  0.04627654  0.74898958  0.76420743     0.97600
O1545       O  0.06472520  0.77718826  0.74723926    -0.82900
O1546       O  0.10651520  0.72965798  0.70033500    -0.85600
C1547       C  0.12610469  0.69526923  0.69423086     1.02100
O1548       O  0.14651649  0.67846840  0.71775635    -0.78400
O1549       O  0.11860380  0.64587294  0.77757358    -0.78500
C1550       C  0.10924662  0.64024829  0.80769390     1.02100
Cr1551     Cr  0.10470386  0.74154564  0.81107871     1.93700
Cr1552     Cr  0.11686678  0.77690757  0.73765930     1.93200
Cr1553     Cr  0.15704245  0.69187983  0.76740360     1.39100
O1554       O  0.12635379  0.73688676  0.77125443    -1.23600
O1555       O  0.29223307  0.02582619  0.67946260    -0.85900
O1556       O  0.35028371  0.57069026  0.70958141    -0.82900
C1557       C  0.33035763  0.59840334  0.72408359     0.97600
O1558       O  0.31435069  0.58473130  0.75054699    -0.82900
O1559       O  0.27661636  0.52661205  0.79689703    -0.85600
C1560       C  0.24757971  0.50674515  0.78804188     1.02100
O1561       O  0.24406627  0.98415815  0.76105946    -0.78300
O1562       O  0.26048848  0.96588377  0.69466770    -0.78500
C1563       C  0.26300383  0.00384453  0.67803321     1.02100
O1564       O  0.32995665  0.93844441  0.68245784    -0.85900
O1565       O  0.38168251  0.98050544  0.72435585    -0.82900
C1566       C  0.39579753  0.00105513  0.74970372     0.97600
O1567       O  0.37725858  0.53031339  0.76786289    -0.82900
O1568       O  0.33652319  0.96749372  0.80962854    -0.85600
C1569       C  0.31621862  0.93220872  0.81212345     1.02100
O1570       O  0.29327773  0.92304798  0.78873022    -0.78400
O1571       O  0.32024574  0.90467780  0.72987132    -0.78500
C1572       C  0.33045392  0.90198478  0.70024854     1.02100
Cr1573     Cr  0.33686283  0.00237257  0.70253785     1.93700
Cr1574     Cr  0.32545610  0.52656671  0.77789726     1.93200
Cr1575     Cr  0.28219074  0.94769349  0.74226687     1.39100
O1576       O  0.31425463  0.99217905  0.74171446    -1.23600
C1577       C  0.24093326  0.86682309  0.92683559    -0.06600
C1578       C  0.25332369  0.91039846  0.93694064    -0.17800
C1579       C  0.22816497  0.94344366  0.94433731     0.10600
C1580       C  0.19243443  0.93348863  0.93441437    -0.06600
C1581       C  0.18115513  0.88817124  0.93967840    -0.17800
C1582       C  0.20638035  0.85347335  0.93673901     0.10600
S1583       S  0.24159623  0.00031395  0.95705524    -0.32800
S1584       S  0.19534883  0.79483279  0.94754921    -0.32800
H1585       H  0.15923063  0.80294990  0.95406009     0.28600
H1586       H  0.27773665  0.98928605  0.96463217     0.28600
H1587       H  0.28150881  0.91918399  0.93676737     0.19200
H1588       H  0.15289521  0.87980061  0.93979342     0.19200
C1589       C  0.33599336  0.74605316  0.86101310    -0.06600
C1590       C  0.36486021  0.76531380  0.84431700    -0.17800
C1591       C  0.36538949  0.76136338  0.80872457     0.10600
C1592       C  0.33820329  0.73429050  0.79214251    -0.06600
C1593       C  0.32081623  0.70108101  0.81186109    -0.17800
C1594       C  0.32230853  0.70504938  0.84742297     0.10600
S1595       S  0.39772196  0.79472247  0.78580991    -0.32800
S1596       S  0.30201583  0.66308636  0.87471548    -0.32800
H1597       H  0.29389621  0.63132559  0.84868510     0.28600
H1598       H  0.41738184  0.81118540  0.81466788     0.28600
H1599       H  0.38120184  0.79118042  0.85720576     0.19200
H1600       H  0.30459954  0.67443515  0.79973634     0.19200
C1601       C  0.34216035  0.77379619  0.57796493    -0.06600
C1602       C  0.34328349  0.81655147  0.56140090    -0.17800
C1603       C  0.34363740  0.81998503  0.52590103     0.10600
C1604       C  0.33977296  0.77999381  0.50594751    -0.06600
C1605       C  0.34310296  0.73715931  0.52233473    -0.17800
C1606       C  0.34595947  0.73386534  0.55823844     0.10600
S1607       S  0.34633662  0.87667466  0.50724655    -0.32800
S1608       S  0.35273068  0.67807801  0.57714592    -0.32800
H1609       H  0.37990813  0.69300405  0.60054413     0.28600
H1610       H  0.35772192  0.86218221  0.97243951     0.28600
H1611       H  0.34244927  0.84766680  0.57618147     0.19200
H1612       H  0.34144055  0.70626993  0.50728017     0.19200
C1613       C  0.20001364  0.63191201  0.57262331    -0.06600
C1614       C  0.19088378  0.67786306  0.56674967    -0.17800
C1615       C  0.21679940  0.71103748  0.57437082     0.10600
C1616       C  0.24934672  0.69571365  0.59037066    -0.06600
C1617       C  0.26130453  0.65195436  0.58209225    -0.17800
C1618       C  0.23604436  0.62042015  0.56943880     0.10600
S1619       S  0.20464699  0.77055326  0.57027560    -0.32800
S1620       S  0.24848673  0.56407348  0.55599771    -0.32800
H1621       H  0.28562218  0.57278873  0.55768132     0.28600
H1622       H  0.24033168  0.78654950  0.57228377     0.28600
H1623       H  0.16311889  0.68787153  0.56273882     0.19200
H1624       H  0.28752320  0.64004945  0.59064963     0.19200
C1625       C  0.11827168  0.53053745  0.66563504    -0.06600
C1626       C  0.13085532  0.55383522  0.69547206    -0.17800
C1627       C  0.13721531  0.53230662  0.72555954     0.10600
C1628       C  0.12363460  0.48876245  0.72963564    -0.06600
C1629       C  0.10802361  0.46436430  0.70205459    -0.17800
C1630       C  0.10773119  0.48407763  0.66902940     0.10600
S1631       S  0.16522872  0.56058397  0.75793255    -0.32800
S1632       S  0.09699954  0.44875020  0.63273998    -0.32800
H1633       H  0.10683310  0.40725760  0.64917790     0.28600
H1634       H  0.18362230  0.59071720  0.73647181     0.28600
H1635       H  0.14426792  0.58649240  0.69426658     0.19200
H1636       H  0.09784328  0.42998828  0.70607852     0.19200
C1637       C  0.09865876  0.52758106  0.50795829    -0.06600
C1638       C  0.08587512  0.56581607  0.98550281    -0.17800
C1639       C  0.08339288  0.56062796  0.95007949     0.10600
C1640       C  0.09437997  0.51916892  0.93583935    -0.06600
C1641       C  0.10233134  0.48156203  0.95744467    -0.17800
C1642       C  0.10481929  0.48685908  0.99306227     0.10600
S1643       S  0.07053892  0.10670586  0.92777842    -0.32800
S1644       S  0.12097398  0.44043630  0.02026536    -0.32800
H1645       H  0.09895554  0.44250546  0.54336449     0.28600
H1646       H  0.06009947  0.08218725  0.89822676     0.28600
H1647       H  0.08207812  0.59744325  0.49969305     0.19200
H1648       H  0.11045057  0.44966734  0.94638072     0.19200
C1649       C  0.00806578  0.74606851  0.75766750    -0.06600
C1650       C  0.99273692  0.70238324  0.75404005    -0.17800
C1651       C  0.95580151  0.69675833  0.75275351     0.10600
C1652       C  0.93420468  0.73578016  0.75508280    -0.06600
C1653       C  0.94957090  0.77952267  0.75823982    -0.17800
C1654       C  0.98654670  0.78517609  0.75946427     0.10600
S1655       S  0.93803632  0.63921026  0.74961329    -0.32800
S1656       S  0.00585989  0.84173940  0.76526291    -0.32800
H1657       H  0.97338271  0.86574390  0.76601762     0.28600
H1658       H  0.90808515  0.64689005  0.76921979     0.28600
H1659       H  0.00971241  0.67245645  0.75318170     0.19200
H1660       H  0.93246432  0.80924069  0.75942889     0.19200
C1661       C  0.50789294  0.98755198  0.76633800    -0.06600
C1662       C  0.49270471  0.53332431  0.76655009    -0.17800
C1663       C  0.45600864  0.53898693  0.76027120     0.10600
C1664       C  0.43411941  0.99715062  0.75658956    -0.06600
C1665       C  0.44943720  0.95342628  0.75692608    -0.17800
C1666       C  0.48631150  0.94814575  0.76196849     0.10600
S1667       S  0.43808067  0.59586534  0.75290809    -0.32800
S1668       S  0.50409266  0.89083051  0.76167586    -0.32800
H1669       H  0.53693725  0.90271645  0.74770460     0.28600
H1670       H  0.47002697  0.62011498  0.76072867     0.28600
H1671       H  0.51023356  0.56304526  0.76754182     0.19200
H1672       H  0.43257960  0.92336565  0.75307431     0.19200
C1673       C  0.74782810  0.92866930  0.59887905    -0.06600
C1674       C  0.75959694  0.88512495  0.58996453    -0.17800
C1675       C  0.73375555  0.85236488  0.58066773     0.10600
C1676       C  0.69791465  0.86324496  0.58640497    -0.06600
C1677       C  0.68767237  0.90894392  0.58142297    -0.17800
C1678       C  0.71379635  0.94276917  0.58562623     0.10600
S1679       S  0.74589635  0.79715350  0.56458913    -0.32800
S1680       S  0.70082864  0.00195721  0.58134313    -0.32800
H1681       H  0.73629019  0.01848622  0.58039634     0.28600
H1682       H  0.78300989  0.80593733  0.56527257     0.28600
H1683       H  0.78709489  0.87484924  0.59521565     0.19200
H1684       H  0.65963480  0.91830197  0.57943072     0.19200
C1685       C  0.60341308  0.71893981  0.72608297    -0.06600
C1686       C  0.62104768  0.68871701  0.70490197    -0.17800
C1687       C  0.62013072  0.69697673  0.66957684     0.10600
C1688       C  0.60638351  0.73906991  0.65752339    -0.06600
C1689       C  0.57824420  0.75702216  0.67537302    -0.17800
C1690       C  0.57725189  0.74856474  0.71047651     0.10600
S1691       S  0.64042236  0.65821820  0.64069842    -0.32800
S1692       S  0.54555339  0.78101933  0.73349155    -0.32800
H1693       H  0.53346301  0.74252834  0.75172050     0.28600
H1694       H  0.65012557  0.62495507  0.66566279     0.28600
H1695       H  0.63700945  0.66094278  0.71589847     0.19200
H1696       H  0.56205951  0.78434454  0.66396773     0.19200
C1697       C  0.59778740  0.76106957  0.93885810    -0.06600
C1698       C  0.59808589  0.80507974  0.95289503    -0.17800
C1699       C  0.59787366  0.81124117  0.98811140     0.10600
C1700       C  0.59564805  0.77231667  0.51120174    -0.06600
C1701       C  0.59454414  0.72902190  0.99641090    -0.17800
C1702       C  0.59132792  0.72320810  0.96075387     0.10600
S1703       S  0.58624836  0.86808781  0.50592462    -0.32800
S1704       S  0.57990829  0.66716051  0.94502211    -0.32800
H1705       H  0.55527921  0.68369764  0.91960684     0.28600
H1706       H  0.57480669  0.85362967  0.53807338     0.28600
H1707       H  0.60010332  0.83497689  0.93639247     0.19200
H1708       H  0.59357323  0.69856373  0.51305861     0.19200
C1709       C  0.69234286  0.67917100  0.93005467    -0.06600
C1710       C  0.67559048  0.63713181  0.93493878    -0.17800
C1711       C  0.69435338  0.60123094  0.92157961     0.10600
C1712       C  0.73249036  0.60162123  0.92737491    -0.06600
C1713       C  0.74821348  0.64141921  0.94232133    -0.17800
C1714       C  0.72825517  0.68194564  0.94203731     0.10600
S1715       S  0.67111056  0.58099190  0.88317653    -0.32800
S1716       S  0.74968066  0.73671604  0.94913818    -0.32800
H1717       H  0.78502463  0.72021382  0.95128964     0.28600
H1718       H  0.70083589  0.58667330  0.86271350     0.28600
H1719       H  0.64681212  0.63632262  0.93068512     0.19200
H1720       H  0.77681004  0.64294884  0.94811774     0.19200
C1721       C  0.83623319  0.48272484  0.87052966    -0.06600
C1722       C  0.82411863  0.43959497  0.85980755    -0.17800
C1723       C  0.81761138  0.93072190  0.82255403     0.10600
C1724       C  0.83855885  0.46278610  0.80265854    -0.06600
C1725       C  0.86372932  0.49390660  0.81704831    -0.17800
C1726       C  0.86409965  0.50195043  0.85210020     0.10600
S1727       S  0.78939041  0.88491650  0.80581267    -0.32800
S1728       S  0.89630149  0.54149619  0.87100407    -0.32800
H1729       H  0.88565973  0.53480303  0.90461528     0.28600
H1730       H  0.78181042  0.86468730  0.83746555     0.28600
H1731       H  0.80830664  0.41902946  0.87674255     0.19200
H1732       H  0.88070485  0.51445830  0.80113547     0.19200
C1733       C  0.83463367  0.51434636  0.51618588    -0.06600
C1734       C  0.84387279  0.55235410  0.53642303    -0.17800
C1735       C  0.84697516  0.54882547  0.57205171     0.10600
C1736       C  0.84071636  0.50627715  0.58826084    -0.06600
C1737       C  0.83569162  0.46714856  0.56800250    -0.17800
C1738       C  0.83169591  0.47086612  0.53217814     0.10600
S1739       S  0.85697785  0.60040922  0.59565234    -0.32800
S1740       S  0.81896113  0.42007217  0.50883383    -0.32800
H1741       H  0.82823754  0.39310429  0.03589465     0.28600
H1742       H  0.87923080  0.07236413  0.62351643     0.28600
H1743       H  0.84645916  0.58571064  0.52432517     0.19200
H1744       H  0.83131661  0.43429666  0.58021084     0.19200
loop_ 
_geom_bond_atom_site_label_1 
_geom_bond_atom_site_label_2 
_geom_bond_distance 
_geom_bond_site_symmetry_2 
_ccdc_geom_bond_type 
C1            C3   1.556       .  S
C1            C5   1.554       .  S
C1            C4   1.512       .  S
C1          C404   1.508       .  S
C2            C6   1.569       .  S
C2            C8   1.574       .  S
C2            C7   1.535       .  S
C2          C413   1.522   1_545  S
C3           C11   1.398       .  A
C3            C6   1.392       .  A
C4           C15   1.364       .  A
C4            C7   1.377       .  A
C5           C19   1.395       .  A
C5            C8   1.387       .  A
C6            C9   1.399       .  A
C7           C13   1.390       .  A
C8          C888   1.406   1_545  A
C9           N10   1.360       .  A
C9           H22   1.080       .  S
N10          C11   1.363       .  A
N10         C127   1.451       .  S
C11          H12   1.082       .  S
C13          N14   1.363       .  A
C13         H895   1.082   1_545  S
N14          C15   1.351       .  A
N14         C861   1.435       .  S
C15          H21   1.083       .  S
C16         C880   1.411       .  A
C16          N17   1.367       .  A
C16          H18   1.077       .  S
N17         C891   1.349       .  A
N17          C99   1.460       .  S
C19         N889   1.359       .  A
C19          H20   1.081       .  S
H23         C885   1.082       .  S
O24         Cr42   1.998       .  S
O24          C32   1.264       .  A
O25         Cr42   1.810       .  S
O25          C26   1.270       .  A
C26          O27   1.344       .  A
C26          C93   1.490       .  S
O27         Cr43   2.244       .  S
O28         Cr43   2.014       .  S
O28          C29   1.274       .  A
C29          O30   1.274       .  A
C29         C389   1.493       .  S
O30         Cr44   2.002       .  S
O31         Cr44   1.945       .  S
O31          C32   1.252       .  A
C32         C401   1.464       .  S
O33         Cr42   1.980       .  S
O33          C41   1.271       .  A
O34         Cr42   1.998       .  S
O34          C35   1.271       .  A
C35          O36   1.262       .  A
C35         C377   1.474       .  S
O36         Cr43   1.966       .  S
O37         Cr43   2.095       .  S
O37          C38   1.297       .  A
C38          O39   1.248       .  A
C38         C108   1.454       .  S
O39         Cr44   1.875       .  S
O40         Cr44   1.988       .  S
O40          C41   1.266       .  A
C41         C118   1.453       .  S
Cr42         O45   1.596       .  S
Cr43         O45   1.723       .  S
Cr44         O45   1.725       .  S
C46          C48   1.561       .  S
C46          C50   1.547       .  S
C46          C49   1.512       .  S
C46         C368   1.508       .  S
C47          C51   1.573       .  S
C47          C53   1.573       .  S
C47          C52   1.538       .  S
C47         C380   1.525       .  S
C48          C56   1.402       .  A
C48          C51   1.389       .  A
C49          C60   1.363       .  A
C49          C52   1.378       .  A
C50          C64   1.390       .  A
C50          C53   1.388       .  A
C51          C54   1.400       .  A
C52          C58   1.391       .  A
C53          C61   1.405       .  A
C54          N55   1.361       .  A
C54          H67   1.078       .  S
N55          C56   1.367       .  A
N55         C105   1.455       .  S
C56          H57   1.083       .  S
C58          N59   1.365       .  A
C58          H68   1.082       .  S
N59          C60   1.352       .  A
N59         C392   1.440       .  S
C60          H66   1.083       .  S
C61          N62   1.362       .  A
C61          H63   1.079       .  S
N62          C64   1.357       .  A
N62         C121   1.455       .  S
C64          H65   1.081       .  S
O69         Cr87   2.002       .  S
O69          C77   1.263       .  A
O70         Cr87   1.809       .  S
O70          C71   1.269       .  A
C71          O72   1.347       .  A
C71         C115   1.498       .  S
O72        Cr960   2.258       .  S
O73         Cr88   2.000       .  S
O73          C74   1.271   1_565  A
C74          O75   1.273       .  A
C74         C428   1.478       .  S
O75         Cr89   2.002       .  S
O76        Cr961   1.945       .  S
O76          C77   1.252       .  A
C77         C365   1.468       .  S
O78         Cr87   1.974       .  S
O78         C958   1.270       .  A
O79         Cr87   2.004       .  S
O79          C80   1.270       .  A
C80         O953   1.263       .  A
C80        C1288   1.474       .  S
O81         Cr88   1.962       .  S
O81         C952   1.262       .  A
O82         Cr88   2.105   1_545  S
O82          C83   1.299       .  A
C83          O84   1.244       .  A
C83         C130   1.461       .  S
O84         Cr89   1.871       .  S
O85         Cr89   1.976       .  S
O85          C86   1.265   1_545  A
C86         O950   1.273       .  A
C86          C96   1.443       .  S
Cr87         O90   1.596       .  S
Cr88        O944   2.253       .  S
Cr88        O962   1.723       .  S
Cr89        O948   1.945   1_545  S
Cr89        O962   1.731   1_545  S
O90        Cr960   1.720       .  S
O90        Cr961   1.726       .  S
O91        Cr109   1.998       .  S
O91          C99   1.269       .  A
O92        Cr981   2.019   1_545  S
O92          C93   1.257       .  A
C93          O94   1.275       .  A
O94        Cr110   2.016       .  S
O95        Cr110   1.992       .  S
O95          C96   1.262   1_545  A
C96         O969   1.259       .  A
O97        Cr111   1.956       .  S
O97         C968   1.264       .  A
O98        Cr111   2.038       .  S
O98          C99   1.270       .  A
O100       Cr109   2.041       .  S
O100        C108   1.267       .  A
O101       Cr109   1.961       .  S
O101        C102   1.260       .  A
C102        O103   1.264       .  A
C102        C353   1.445       .  S
O103       Cr982   1.983       .  S
O104       Cr982   2.062       .  S
O104        C105   1.279       .  A
C105        O106   1.248       .  A
O106       Cr111   1.965       .  S
O107       Cr111   1.985       .  S
O107        C108   1.246       .  A
Cr109       O964   2.050       .  S
Cr109       O112   1.802       .  S
Cr110       O975   1.984       .  S
Cr110       O976   2.048   1_545  S
Cr110       O984   1.761   1_545  S
Cr111       O112   1.770       .  S
O112       Cr982   1.776       .  S
O113       Cr131   1.985       .  S
O113        C121   1.261       .  A
O114       Cr131   2.033       .  S
O114        C115   1.259       .  A
C115        O116   1.274       .  A
O116       Cr132   2.013       .  S
O117       Cr132   2.008       .  S
O117        C118   1.265       .  A
C118        O119   1.258       .  A
O119       Cr133   1.953       .  S
O120       Cr133   2.034       .  S
O120        C121   1.275       .  A
O122       Cr131   2.038       .  S
O122        C130   1.268       .  A
O123       Cr131   1.946       .  S
O123        C124   1.257       .  A
C124        O125   1.267       .  A
C124        C344   1.440       .  S
O125       Cr132   1.995       .  S
O126       Cr132   2.047       .  S
O126        C127   1.278       .  A
C127        O128   1.256       .  A
O128       Cr133   1.984       .  S
O129       Cr133   1.988       .  S
O129        C130   1.249       .  A
Cr131       O134   1.796       .  S
Cr132       O134   1.762       .  S
Cr133       O134   1.757       .  S
C135        C137   1.572       .  S
C135        C139   1.548       .  S
C135        C138   1.546       .  S
C135        C305   1.513       .  S
C136        C140   1.561       .  S
C136        C142   1.569       .  S
C136        C141   1.533       .  S
C136        C317   1.506       .  S
C137        C145   1.415       .  A
C137        C140   1.374       .  A
C138        C149   1.362       .  A
C138        C141   1.405       .  A
C139        C153   1.405       .  A
C139        C142   1.363       .  A
C140        C143   1.393       .  A
C141        C147   1.386       .  A
C142       C1022   1.399       .  A
C143        N144   1.346       .  A
C143        H156   1.084       .  S
N144        C145   1.378       .  A
N144        C239   1.461       .  S
C145        H146   1.082       .  S
C147        N148   1.359       .  A
C147       H1029   1.075       .  S
N148        C149   1.351       .  A
N148        C329   1.429       .  S
C149        H155   1.083       .  S
C150       C1014   1.403       .  A
C150        N151   1.357       .  A
C150        H152   1.082       .  S
N151       C1025   1.367       .  A
N151        C255   1.464       .  S
C153       N1023   1.367       .  A
C153        H154   1.080       .  S
H157       C1019   1.079       .  S
O158       Cr176   2.012       .  S
O158        C166   1.263       .  A
O159       Cr176   1.822       .  S
O159        C160   1.270       .  A
C160        O161   1.351       .  A
C160        C249   1.512       .  S
O161       Cr177   2.273       .  S
O162       Cr177   1.998       .  S
O162        C163   1.271       .  A
C163        O164   1.277       .  A
C163        C293   1.487       .  S
O164       Cr178   2.014       .  S
O165       Cr178   1.940       .  S
O165        C166   1.248       .  A
C166        C308   1.469       .  S
O167       Cr176   1.980       .  S
O167        C175   1.274       .  A
O168       Cr176   2.012       .  S
O168        C169   1.272       .  A
C169        O170   1.256       .  A
C169        C284   1.474       .  S
O170       Cr177   1.946       .  S
O171       Cr177   2.115       .  S
O171        C172   1.302       .  A
C172        O173   1.244       .  A
C172        C264   1.470       .  S
O173       Cr178   1.875       .  S
O174       Cr178   1.985       .  S
O174        C175   1.268       .  A
C175        C230   1.451       .  S
Cr176       O179   1.605       .  S
Cr177       O179   1.720       .  S
Cr178       O179   1.734       .  S
C180        C182   1.553       .  S
C180        C184   1.546       .  S
C180        C183   1.512       .  S
C180        C269   1.507       .  S
C181        C185   1.575       .  S
C181        C187   1.570       .  S
C181        C186   1.543       .  S
C181        C281   1.526       .  S
C182        C190   1.396       .  A
C182        C185   1.391       .  A
C183        C194   1.362       .  A
C183        C186   1.380       .  A
C184        C198   1.388       .  A
C184        C187   1.387       .  A
C185        C188   1.402       .  A
C186        C192   1.395       .  A
C187        C195   1.403       .  A
C188        N189   1.362       .  A
C188        H201   1.077       .  S
N189        C190   1.362       .  A
N189        C261   1.453       .  S
C190        H191   1.083       .  S
C192        N193   1.367       .  A
C192        H202   1.082       .  S
N193        C194   1.352       .  A
N193        C732   1.442       .  S
C194        H200   1.083       .  S
C195        N196   1.358       .  A
C195        H197   1.078       .  S
N196        C198   1.359       .  A
N196        C233   1.453       .  S
C198        H199   1.082       .  S
O203       Cr221   1.997       .  S
O203        C211   1.265       .  A
O204       Cr221   1.824       .  S
O204        C205   1.276       .  A
C205        O206   1.344       .  A
C205        C227   1.501       .  S
O206      Cr1094   2.244       .  S
O207       Cr222   1.977       .  S
O207        C208   1.265   1_565  A
C208        O209   1.275       .  A
C208        C332   1.465       .  S
O209       Cr223   2.014       .  S
O210      Cr1095   1.952       .  S
O210        C211   1.254       .  A
C211        C272   1.470       .  S
O212       Cr221   2.002       .  S
O212       C1092   1.279       .  A
O213       Cr221   1.984       .  S
O213        C214   1.262       .  A
C214       O1087   1.255       .  A
C214       C1192   1.410       .  S
O215       Cr222   1.911   1_545  S
O215       C1086   1.249   1_545  A
O216       Cr222   2.123   1_545  S
O216        C217   1.305       .  A
C217        O218   1.247       .  A
C217        C242   1.485       .  S
O218       Cr223   1.893       .  S
O219       Cr223   1.997       .  S
O219        C220   1.269       .  A
C220       O1084   1.278   1_545  A
C220        C252   1.477       .  S
Cr221       O224   1.611       .  S
Cr222      O1078   2.250       .  S
Cr222      O1096   1.730   1_565  S
Cr223      O1082   1.953   1_545  S
Cr223      O1096   1.734       .  S
O224      Cr1094   1.729       .  S
O224      Cr1095   1.735       .  S
O225       Cr243   1.971       .  S
O225        C233   1.260       .  A
O226       Cr243   2.030       .  S
O226        C227   1.258       .  A
C227        O228   1.271       .  A
O228       Cr244   2.020       .  S
O229       Cr244   1.996       .  S
O229        C230   1.262       .  A
C230        O231   1.257       .  A
O231       Cr245   1.949       .  S
O232       Cr245   2.048       .  S
O232        C233   1.281       .  A
O234       Cr243   2.039       .  S
O234        C242   1.266       .  A
O235       Cr243   1.937       .  S
O235        C236   1.260       .  A
C236        O237   1.272       .  A
C236        C341   1.454       .  S
O237       Cr244   2.005       .  S
O238       Cr244   2.036       .  S
O238        C239   1.276       .  A
C239        O240   1.267       .  A
O240       Cr245   2.014       .  S
O241       Cr245   2.012       .  S
O241        C242   1.256       .  A
Cr243       O246   1.801       .  S
Cr244       O246   1.774       .  S
Cr245       O246   1.762       .  S
O247       Cr265   1.986       .  S
O247        C255   1.262       .  A
O248      Cr1137   2.036       .  S
O248        C249   1.262       .  A
C249        O250   1.282       .  A
O250       Cr266   2.039       .  S
O251       Cr266   2.012       .  S
O251        C252   1.264       .  A
C252       O1125   1.265   1_545  A
O253       Cr267   1.962       .  S
O253       C1124   1.263       .  A
O254       Cr267   2.065       .  S
O254        C255   1.284       .  A
O256       Cr265   2.046       .  S
O256        C264   1.266       .  A
O257       Cr265   1.954       .  S
O257        C258   1.260       .  A
C258       O1131   1.267       .  A
C258        C356   1.458       .  S
O259       Cr266   1.994       .  S
O259       C1130   1.266       .  A
O260      Cr1138   2.050       .  S
O260        C261   1.279       .  A
C261        O262   1.257       .  A
O262       Cr267   1.982       .  S
O263       Cr267   1.986       .  S
O263        C264   1.243       .  A
Cr265      O1120   2.031       .  S
Cr265       O268   1.807       .  S
Cr266      O1132   2.052   1_545  S
Cr266      O1140   1.772   1_545  S
Cr267       O268   1.761       .  S
O268      Cr1138   1.769       .  S
C269        C270   1.404       .  A
C269        C274   1.413       .  A
C270        C271   1.393       .  A
C270        H279   1.082       .  S
C271        C272   1.406       .  A
C271        S275   1.802       .  S
C272        C273   1.401       .  A
C273        C274   1.397       .  A
C273        H280   1.082       .  S
C274        S276   1.806       .  S
S275        H278   1.408       .  S
S276        H277   1.407       .  S
C281        C282   1.397       .  A
C281        C286   1.402       .  A
C282        C283   1.400       .  A
C282        H291   1.083       .  S
C283        C284   1.421       .  A
C283        S287   1.809       .  S
C284        C285   1.406       .  A
C285        C286   1.399       .  A
C285        H292   1.083       .  S
C286        S288   1.804       .  S
S287        H290   1.407       .  S
S288        H289   1.408       .  S
C293        C294   1.402       .  A
C293        C298   1.417       .  A
C294        C295   1.396       .  A
C294        H303   1.084       .  S
C295        C296   1.414       .  A
C295        S299   1.804       .  S
C296        C297   1.402       .  A
C296        N629   1.441   1_554  S
C297        C298   1.407       .  A
C297        H304   1.083       .  S
C298        S300   1.796       .  S
S299        H738   1.407   1_554  S
S300        H301   1.406       .  S
H302        S735   1.407       .  S
C305        C306   1.399       .  A
C305        C310   1.404       .  A
C306        C307   1.390       .  A
C306        H315   1.083       .  S
C307        C308   1.416       .  A
C307        S311   1.802       .  S
C308        C309   1.401       .  A
C309        C310   1.395       .  A
C309        H316   1.080       .  S
C310        S312   1.803       .  S
S311        H314   1.408       .  S
S312        H313   1.407       .  S
C317        C318   1.421       .  A
C317        C322   1.409   1_545  A
C318        C319   1.334       .  A
C318        H327   1.083       .  S
C319        C320   1.377   1_545  A
C319        S323   1.810       .  S
C320        C321   1.404       .  A
C320       C1086   1.397       .  S
C321        C322   1.406       .  A
C321        H328   1.083       .  S
C322        S324   1.792       .  S
S323        H326   1.408       .  S
S324        H325   1.407       .  S
C329        C766   1.402   1_554  A
C329        C770   1.410   1_544  A
C330        C331   1.396       .  A
C330        C765   1.402       .  A
C330        H775   1.083       .  S
C331        C332   1.408       .  A
C331       S1207   1.803       .  S
C332        C333   1.401   1_545  A
C333        C334   1.399       .  A
C333        H340   1.080       .  S
C334        C765   1.405   1_565  A
C334        S336   1.805       .  S
S335       C1203   1.804       .  S
S335        H338   1.407       .  S
S336        H773   1.406       .  S
H337        S772   1.403       .  S
H339        C766   1.084       .  S
C341        C342   1.404   1_455  A
C341        C346   1.410   1_455  A
C342        C343   1.389       .  A
C342        H351   1.084   1_655  S
C343        C344   1.404       .  A
C343        S347   1.806       .  S
C344        C345   1.397       .  A
C345        C346   1.391       .  A
C345        H352   1.084       .  S
C346        S348   1.809   1_655  S
S347        H350   1.407       .  S
S348        H349   1.407   1_455  S
C353        C358   1.406       .  A
C353       C1226   1.397       .  A
C354        C355   1.388       .  A
C354       C1225   1.400   1_545  A
C354        H363   1.084       .  S
C355       C1228   1.405       .  A
C355        S359   1.810       .  S
C356        C357   1.403       .  A
C356       C1227   1.412       .  A
C357        C358   1.391       .  A
C357        H364   1.084       .  S
C358        S360   1.805       .  S
S359        H362   1.407       .  S
S360        H361   1.406       .  S
C365        C366   1.400       .  A
C365        C370   1.409       .  A
C366        C367   1.395       .  A
C366        H375   1.082       .  S
C367        C368   1.410       .  A
C367        S371   1.805       .  S
C368        C369   1.401       .  A
C369        C370   1.389       .  A
C369        H376   1.083       .  S
C370        S372   1.800       .  S
S371        H374   1.408       .  S
S372        H373   1.409       .  S
C377        C378   1.407       .  A
C377        C382   1.418       .  A
C378        C379   1.397       .  A
C378        H387   1.083       .  S
C379        C380   1.400       .  A
C379        S383   1.804       .  S
C380        C381   1.400       .  A
C381        C382   1.401       .  A
C381        H388   1.083       .  S
C382        S384   1.808       .  S
S383        H386   1.407       .  S
S384        H385   1.407       .  S
C389        C390   1.402       .  A
C389        C394   1.418       .  A
C390        C391   1.393       .  A
C390        H399   1.084       .  S
C391        C828   1.416       .  A
C391        S831   1.805       .  S
C392        C827   1.414   1_554  A
C392        C829   1.404   1_554  A
C393        C394   1.412       .  A
C393        C828   1.405       .  A
C393        H836   1.083       .  S
C394        S396   1.796       .  S
S395        C827   1.804   1_554  S
S395        H398   1.407       .  S
S396        H397   1.406       .  S
H400        C829   1.082   1_554  S
C401        C402   1.402       .  A
C401        C406   1.411       .  A
C402        C403   1.391       .  A
C402        H411   1.079       .  S
C403        C404   1.404       .  A
C403        S407   1.805       .  S
C404        C405   1.400       .  A
C405        C406   1.392       .  A
C405        H412   1.083       .  S
C406        S408   1.805       .  S
S407        H410   1.407       .  S
S408        H409   1.407       .  S
C413        C414   1.396       .  A
C413        C418   1.405   1_565  A
C414       C1287   1.398       .  A
C414        H423   1.082       .  S
C415       C1286   1.399       .  A
C415       C1288   1.417       .  A
C415        S419   1.802       .  S
C416        C417   1.406       .  A
C416       C1287   1.417       .  A
C416        C952   1.470       .  S
C417        C418   1.394   1_565  A
C417        H424   1.083   1_565  S
C418        S420   1.803       .  S
S419        H422   1.407       .  S
S420        H421   1.406       .  S
C425        C426   1.405       .  A
C425        C430   1.409   1_545  A
C425        N450   1.440   1_554  S
C426        C427   1.394       .  A
C426        H435   1.084       .  S
C427        C428   1.410       .  A
C427        S431   1.805       .  S
C428        C429   1.407   1_545  A
C429        C430   1.410       .  A
C429        H436   1.082       .  S
C430        S432   1.802       .  S
S431       H1306   1.407       .  S
S432        H869   1.407       .  S
H433        S868   1.406       .  S
H434       S1303   1.407       .  S
C437        C439   1.553       .  S
C437        C441   1.552       .  S
C437        C440   1.508       .  S
C437        C840   1.507       .  S
C438        C442   1.572       .  S
C438        C444   1.578       .  S
C438        C443   1.542       .  S
C438        C849   1.525   1_545  S
C439        C447   1.395       .  A
C439        C442   1.390       .  A
C440        C451   1.360       .  A
C440        C443   1.377       .  A
C441        C455   1.395       .  A
C441        C444   1.388       .  A
C442        C445   1.402       .  A
C443        C449   1.396   1_545  A
C444       C1324   1.406   1_545  A
C445        N446   1.362       .  A
C445        H458   1.079       .  S
N446        C447   1.359       .  A
N446        C563   1.450       .  S
C447        H448   1.082       .  S
C449        N450   1.367   1_565  A
C449       H1331   1.082       .  S
N450        C451   1.350       .  A
C451        H457   1.083       .  S
C452       C1316   1.408       .  A
C452        N453   1.365       .  A
C452        H454   1.076       .  S
N453       C1327   1.348       .  A
N453        C535   1.455       .  S
C455       N1325   1.360   1_545  A
C455        H456   1.080       .  S
H459       C1321   1.082       .  S
O460       Cr478   1.998       .  S
O460        C468   1.265       .  A
O461       Cr478   1.812       .  S
O461        C462   1.272       .  A
C462        O463   1.341       .  A
C462        C529   1.485       .  S
O463       Cr479   2.233       .  S
O464       Cr479   2.004       .  S
O464        C465   1.274       .  A
C465        O466   1.275       .  A
C465        C825   1.484       .  S
O466       Cr480   2.002       .  S
O467       Cr480   1.947       .  S
O467        C468   1.253       .  A
C468        C837   1.465       .  S
O469       Cr478   1.977       .  S
O469        C477   1.271       .  A
O470       Cr478   2.008       .  S
O470        C471   1.272       .  A
C471        O472   1.261       .  A
C471        C813   1.476       .  S
O472       Cr479   1.960       .  S
O473       Cr479   2.084       .  S
O473        C474   1.293       .  A
C474        O475   1.249       .  A
C474        C544   1.447       .  S
O475       Cr480   1.880       .  S
O476       Cr480   1.986       .  S
O476        C477   1.267       .  A
C477        C554   1.449       .  S
Cr478       O481   1.596       .  S
Cr479       O481   1.722       .  S
Cr480       O481   1.721       .  S
C482        C484   1.562       .  S
C482        C486   1.543       .  S
C482        C485   1.512       .  S
C482        C804   1.506       .  S
C483        C487   1.575       .  S
C483        C489   1.574       .  S
C483        C488   1.541       .  S
C483        C816   1.524       .  S
C484        C492   1.403       .  A
C484        C487   1.393       .  A
C485        C496   1.362       .  A
C485        C488   1.376       .  A
C486        C500   1.388       .  A
C486        C489   1.386       .  A
C487        C490   1.403       .  A
C488        C494   1.395       .  A
C489        C497   1.405       .  A
C490        N491   1.361       .  A
C490        H503   1.079       .  S
N491        C492   1.366       .  A
N491        C541   1.458       .  S
C492        H493   1.083       .  S
C494        N495   1.367       .  A
C494        H504   1.082       .  S
N495        C496   1.352       .  A
N495        C828   1.444       .  S
C496        H502   1.083       .  S
C497        N498   1.362       .  A
C497        H499   1.078       .  S
N498        C500   1.356       .  A
N498        C557   1.454       .  S
C500        H501   1.081       .  S
O505       Cr523   2.003       .  S
O505        C513   1.263       .  A
O506       Cr523   1.812       .  S
O506        C507   1.270       .  A
C507        O508   1.348       .  A
C507        C551   1.500       .  S
O508      Cr1396   2.260       .  S
O509       Cr524   1.999       .  S
O509        C510   1.271   1_565  A
C510        O511   1.273       .  A
C510        C864   1.474       .  S
O511       Cr525   2.002       .  S
O512      Cr1397   1.940       .  S
O512        C513   1.251       .  A
C513        C801   1.469       .  S
O514       Cr523   1.981       .  S
O514       C1394   1.272       .  A
O515       Cr523   2.000       .  S
O515        C516   1.269       .  A
C516       O1389   1.264       .  A
C516       C1724   1.472       .  S
O517       Cr524   1.967       .  S
O517       C1388   1.264       .  A
O518       Cr524   2.098   1_545  S
O518        C519   1.298       .  A
C519        O520   1.246       .  A
C519        C566   1.459       .  S
O520       Cr525   1.875       .  S
O521       Cr525   1.978       .  S
O521        C522   1.266   1_545  A
C522       O1386   1.275       .  A
C522        C532   1.446       .  S
Cr523       O526   1.599       .  S
Cr524      O1380   2.243       .  S
Cr524      O1398   1.725       .  S
Cr525      O1384   1.945   1_545  S
Cr525      O1398   1.733   1_545  S
O526      Cr1396   1.720       .  S
O526      Cr1397   1.728       .  S
O527       Cr545   1.991       .  S
O527        C535   1.267       .  A
O528      Cr1417   2.016   1_545  S
O528        C529   1.257       .  A
C529        O530   1.274       .  A
O530       Cr546   2.012       .  S
O531       Cr546   2.000       .  S
O531        C532   1.264   1_545  A
C532       O1405   1.258       .  A
O533       Cr547   1.950       .  S
O533       C1404   1.263       .  A
O534       Cr547   2.035       .  S
O534        C535   1.269       .  A
O536       Cr545   2.037       .  S
O536        C544   1.267       .  A
O537       Cr545   1.959       .  S
O537        C538   1.259       .  A
C538        O539   1.267       .  A
C538        C789   1.455       .  S
O539      Cr1418   1.992       .  S
O540      Cr1418   2.067       .  S
O540        C541   1.280       .  A
C541        O542   1.249       .  A
O542       Cr547   1.971       .  S
O543       Cr547   1.977       .  S
O543        C544   1.245       .  A
Cr545      O1400   2.049       .  S
Cr545       O548   1.800       .  S
Cr546      O1411   1.990       .  S
Cr546      O1412   2.048   1_545  S
Cr546      O1420   1.761   1_545  S
Cr547       O548   1.768       .  S
O548      Cr1418   1.771       .  S
O549       Cr567   1.981       .  S
O549        C557   1.261       .  A
O550       Cr567   2.032       .  S
O550        C551   1.260       .  A
C551        O552   1.275       .  A
O552       Cr568   2.017       .  S
O553       Cr568   2.002       .  S
O553        C554   1.263       .  A
C554        O555   1.258       .  A
O555       Cr569   1.951       .  S
O556       Cr569   2.033       .  S
O556        C557   1.276       .  A
O558       Cr567   2.041       .  S
O558        C566   1.267       .  A
O559       Cr567   1.949       .  S
O559        C560   1.259       .  A
C560        O561   1.266       .  A
C560        C780   1.436       .  S
O561       Cr568   1.987       .  S
O562       Cr568   2.048       .  S
O562        C563   1.278       .  A
C563        O564   1.255       .  A
O564       Cr569   1.979       .  S
O565       Cr569   1.984       .  S
O565        C566   1.245       .  A
Cr567       O570   1.796       .  S
Cr568       O570   1.760       .  S
Cr569       O570   1.756       .  S
C571        C573   1.570       .  S
C571        C575   1.545       .  S
C571        C574   1.541       .  S
C571        C741   1.514       .  S
C572        C576   1.566       .  S
C572        C578   1.570       .  S
C572        C577   1.533       .  S
C572        C753   1.507       .  S
C573        C581   1.412       .  A
C573        C576   1.375       .  A
C574        C585   1.360       .  A
C574        C577   1.404       .  A
C575        C589   1.403       .  A
C575        C578   1.364       .  A
C576        C579   1.395       .  A
C577        C583   1.387       .  A
C578       C1458   1.402       .  A
C579        N580   1.349       .  A
C579        H592   1.083       .  S
N580        C581   1.376       .  A
N580        C675   1.460       .  S
C581        H582   1.082       .  S
C583        N584   1.358       .  A
C583       H1465   1.078       .  S
N584        C585   1.349       .  A
N584        C765   1.425       .  S
C585        H591   1.083       .  S
C586       C1450   1.404       .  A
C586        N587   1.358       .  A
C586        H588   1.082       .  S
N587       C1461   1.367       .  A
N587        C691   1.467       .  S
C589       N1459   1.365       .  A
C589        H590   1.079       .  S
H593       C1455   1.080       .  S
O594       Cr612   2.010       .  S
O594        C602   1.263       .  A
O595       Cr612   1.819       .  S
O595        C596   1.269       .  A
C596        O597   1.354       .  A
C596        C685   1.516       .  S
O597       Cr613   2.283       .  S
O598       Cr613   2.006       .  S
O598        C599   1.272       .  A
C599        O600   1.275       .  A
C599        C729   1.489       .  S
O600       Cr614   2.009       .  S
O601       Cr614   1.937       .  S
O601        C602   1.248       .  A
C602        C744   1.468       .  S
O603       Cr612   1.975       .  S
O603        C611   1.272       .  A
O604       Cr612   2.014       .  S
O604        C605   1.272       .  A
C605        O606   1.256       .  A
C605        C720   1.475       .  S
O606       Cr613   1.949       .  S
O607       Cr613   2.122       .  S
O607        C608   1.305       .  A
C608        O609   1.243       .  A
C608        C700   1.472       .  S
O609       Cr614   1.867       .  S
O610       Cr614   1.981       .  S
O610        C611   1.266       .  A
C611        C666   1.446       .  S
Cr612       O615   1.605       .  S
Cr613       O615   1.720       .  S
Cr614       O615   1.736       .  S
C616        C618   1.553       .  S
C616        C620   1.544       .  S
C616        C619   1.510       .  S
C616        C705   1.508       .  S
C617        C621   1.573       .  S
C617        C623   1.573       .  S
C617        C622   1.544       .  S
C617        C717   1.526       .  S
C618        C626   1.395       .  A
C618        C621   1.388       .  A
C619        C630   1.360       .  A
C619        C622   1.381       .  A
C620        C634   1.387       .  A
C620        C623   1.388       .  A
C621        C624   1.400       .  A
C622        C628   1.395       .  A
C623        C631   1.405       .  A
C624        N625   1.360       .  A
C624        H637   1.077       .  S
N625        C626   1.363       .  A
N625        C697   1.451       .  S
C626        H627   1.082       .  S
C628        N629   1.367       .  A
C628        H638   1.082       .  S
N629        C630   1.351       .  A
C630        H636   1.083       .  S
C631        N632   1.360       .  A
C631        H633   1.078       .  S
N632        C634   1.359       .  A
N632        C669   1.454       .  S
C634        H635   1.082       .  S
O639       Cr657   1.992       .  S
O639        C647   1.264       .  A
O640       Cr657   1.822       .  S
O640        C641   1.276       .  A
C641        O642   1.342       .  A
C641        C663   1.495       .  S
O642      Cr1530   2.236       .  S
O643       Cr658   1.985       .  S
O643        C644   1.268   1_565  A
C644        O645   1.272       .  A
C644        C768   1.465       .  S
O645       Cr659   2.003       .  S
O646      Cr1531   1.952       .  S
O646        C647   1.254       .  A
C647        C708   1.467       .  S
O648       Cr657   1.997       .  S
O648       C1528   1.278       .  A
O649       Cr657   1.981       .  S
O649        C650   1.260       .  A
C650       O1523   1.257       .  A
C650       C1628   1.411       .  S
O651       Cr658   1.920       .  S
O651       C1522   1.254       .  A
O652       Cr658   2.123   1_545  S
O652        C653   1.305       .  A
C653        O654   1.245       .  A
C653        C678   1.482       .  S
O654       Cr659   1.888       .  S
O655       Cr659   1.982       .  S
O655        C656   1.265   1_545  A
C656       O1520   1.279       .  A
C656        C688   1.471   1_565  S
Cr657       O660   1.610       .  S
Cr658      O1514   2.247       .  S
Cr658      O1532   1.727       .  S
Cr659      O1518   1.957   1_545  S
Cr659      O1532   1.736   1_545  S
O660      Cr1530   1.727       .  S
O660      Cr1531   1.732       .  S
O661       Cr679   1.972       .  S
O661        C669   1.259       .  A
O662       Cr679   2.026       .  S
O662        C663   1.258       .  A
C663        O664   1.271       .  A
O664       Cr680   2.016       .  S
O665       Cr680   1.999       .  S
O665        C666   1.262       .  A
C666        O667   1.255       .  A
O667       Cr681   1.945       .  S
O668       Cr681   2.048       .  S
O668        C669   1.280       .  A
O670       Cr679   2.034       .  S
O670        C678   1.267       .  A
O671       Cr679   1.931       .  S
O671        C672   1.258       .  A
C672        O673   1.271       .  A
C672        C777   1.450       .  S
O673       Cr680   2.002       .  S
O674       Cr680   2.034       .  S
O674        C675   1.276       .  A
C675        O676   1.267       .  A
O676       Cr681   2.019       .  S
O677       Cr681   2.009       .  S
O677        C678   1.258       .  A
Cr679       O682   1.796       .  S
Cr680       O682   1.774       .  S
Cr681       O682   1.760       .  S
O683       Cr701   1.990       .  S
O683        C691   1.263       .  A
O684      Cr1573   2.037       .  S
O684        C685   1.261       .  A
C685        O686   1.283       .  A
O686       Cr702   2.044       .  S
O687       Cr702   2.006       .  S
O687        C688   1.265       .  A
C688       O1561   1.264   1_545  A
O689       Cr703   1.962       .  S
O689       C1560   1.263       .  A
O690       Cr703   2.065       .  S
O690        C691   1.284       .  A
O692       Cr701   2.044       .  S
O692        C700   1.266       .  A
O693       Cr701   1.958       .  S
O693        C694   1.259       .  A
C694       O1567   1.267       .  A
C694        C792   1.452       .  S
O695       Cr702   1.992       .  S
O695       C1566   1.267       .  A
O696      Cr1574   2.048       .  S
O696        C697   1.279       .  A
C697        O698   1.257       .  A
O698       Cr703   1.980       .  S
O699       Cr703   1.991       .  S
O699        C700   1.245       .  A
Cr701      O1556   2.032       .  S
Cr701       O704   1.806       .  S
Cr702      O1568   2.055   1_545  S
Cr702      O1576   1.769   1_545  S
Cr703       O704   1.761       .  S
O704      Cr1574   1.770       .  S
C705        C706   1.402       .  A
C705        C710   1.410       .  A
C706        C707   1.392       .  A
C706        H715   1.083       .  S
C707        C708   1.409       .  A
C707        S711   1.805       .  S
C708        C709   1.402       .  A
C709        C710   1.396       .  A
C709        H716   1.082       .  S
C710        S712   1.806       .  S
S711        H714   1.407       .  S
S712        H713   1.407       .  S
C717        C718   1.398       .  A
C717        C722   1.402       .  A
C718        C719   1.397       .  A
C718        H727   1.084       .  S
C719        C720   1.421       .  A
C719        S723   1.803       .  S
C720        C721   1.406       .  A
C721        C722   1.400       .  A
C721        H728   1.083       .  S
C722        S724   1.804       .  S
S723        H726   1.408       .  S
S724        H725   1.407       .  S
C729        C730   1.403       .  A
C729        C734   1.417       .  A
C730        C731   1.396       .  A
C730        H739   1.084       .  S
C731        C732   1.414       .  A
C731        S735   1.804       .  S
C732        C733   1.404       .  A
C733        C734   1.409       .  A
C733        H740   1.083       .  S
C734        S736   1.795       .  S
S736        H737   1.406       .  S
C741        C742   1.397       .  A
C741        C746   1.403       .  A
C742        C743   1.389       .  A
C742        H751   1.083       .  S
C743        C744   1.418       .  A
C743        S747   1.802       .  S
C744        C745   1.402       .  A
C745        C746   1.395       .  A
C745        H752   1.080       .  S
C746        S748   1.804       .  S
S747        H750   1.408       .  S
S748        H749   1.407       .  S
C753        C754   1.419       .  A
C753        C758   1.415   1_545  A
C754        C755   1.336       .  A
C754        H763   1.080       .  S
C755        C756   1.375   1_545  A
C755        S759   1.809       .  S
C756        C757   1.403       .  A
C756       C1522   1.402       .  S
C757        C758   1.409       .  A
C757        H764   1.083       .  S
C758        S760   1.795       .  S
S759        H762   1.408       .  S
S760        H761   1.407       .  S
C766        C767   1.395       .  A
C767        C768   1.409       .  A
C767       S1643   1.804       .  S
C768        C769   1.401   1_545  A
C769        C770   1.397       .  A
C769        H776   1.082       .  S
C770        S772   1.799   1_556  S
S771       C1639   1.804       .  S
S771        H774   1.407       .  S
C777        C778   1.404   1_455  A
C777        C782   1.410   1_455  A
C778        C779   1.386       .  A
C778        H787   1.084   1_655  S
C779        C780   1.402       .  A
C779        S783   1.806       .  S
C780        C781   1.398       .  A
C781        C782   1.390       .  A
C781        H788   1.084       .  S
C782        S784   1.810   1_655  S
S783        H786   1.407       .  S
S784        H785   1.407   1_455  S
C789       C1662   1.400       .  A
C789        C794   1.409       .  A
C790       C1661   1.399   1_545  A
C790        C791   1.389       .  A
C790        H799   1.084       .  S
C791       C1664   1.408   1_545  A
C791        S795   1.810       .  S
C792       C1663   1.406       .  A
C792        C793   1.401       .  A
C793        C794   1.397       .  A
C793        H800   1.083       .  S
C794        S796   1.808       .  S
S795        H798   1.407       .  S
S796        H797   1.407       .  S
C801        C802   1.400       .  A
C801        C806   1.408       .  A
C802        C803   1.394       .  A
C802        H811   1.082       .  S
C803        C804   1.412       .  A
C803        S807   1.806       .  S
C804        C805   1.402       .  A
C805        C806   1.389       .  A
C805        H812   1.083       .  S
C806        S808   1.800       .  S
S807        H810   1.407       .  S
S808        H809   1.409       .  S
C813        C814   1.407       .  A
C813        C818   1.419       .  A
C814        C815   1.399       .  A
C814        H823   1.083       .  S
C815        C816   1.402       .  A
C815        S819   1.805       .  S
C816        C817   1.398       .  A
C817        C818   1.396       .  A
C817        H824   1.083       .  S
C818        S820   1.802       .  S
S819        H822   1.407       .  S
S820        H821   1.408       .  S
C825        C826   1.402       .  A
C825        C830   1.414       .  A
C826        C827   1.392       .  A
C826        H835   1.084       .  S
C829        C830   1.411       .  A
C830        S832   1.801       .  S
S831        H834   1.407       .  S
S832        H833   1.407       .  S
C837        C838   1.403       .  A
C837        C842   1.413       .  A
C838        C839   1.390       .  A
C838        H847   1.078       .  S
C839        C840   1.401       .  A
C839        S843   1.804       .  S
C840        C841   1.400       .  A
C841        C842   1.392       .  A
C841        H848   1.083       .  S
C842        S844   1.806       .  S
S843        H846   1.407       .  S
S844        H845   1.407       .  S
C849        C850   1.397       .  A
C849        C854   1.406       .  A
C850       C1723   1.400       .  A
C850        H859   1.083       .  S
C851       C1722   1.399       .  A
C851       C1724   1.417       .  A
C851        S855   1.805       .  S
C852       C1723   1.418       .  A
C852        C853   1.406       .  A
C852       C1388   1.472       .  S
C853        C854   1.395       .  A
C853        H860   1.083   1_565  S
C854        S856   1.801   1_565  S
S855        H858   1.407       .  S
S856        H857   1.406       .  S
C861        C862   1.403       .  A
C861        C866   1.409   1_545  A
C862        C863   1.396       .  A
C862        H871   1.084       .  S
C863        C864   1.409       .  A
C863        S867   1.804       .  S
C864        C865   1.405   1_545  A
C865        C866   1.408       .  A
C865        H872   1.080       .  S
C866        S868   1.804       .  S
S867       H1742   1.407       .  S
H870       S1739   1.407       .  S
C873        C875   1.559       .  S
C873        C877   1.546       .  S
C873        C876   1.518       .  S
C873       C1276   1.512       .  S
C874        C878   1.560       .  S
C874        C880   1.578       .  S
C874        C879   1.557       .  S
C874       C1285   1.528       .  S
C875        C883   1.398       .  A
C875        C878   1.380       .  A
C876        C887   1.366       .  A
C876        C879   1.393       .  A
C877        C891   1.385       .  A
C877        C880   1.375       .  A
C878        C881   1.402       .  A
C879        C885   1.392       .  A
C881        N882   1.360       .  A
C881        H894   1.078       .  S
N882        C883   1.368       .  A
N882        C999   1.454       .  S
C883        H884   1.083       .  S
C885        N886   1.366       .  A
N886        C887   1.354       .  A
N886       C1733   1.441       .  S
C887        H893   1.083       .  S
C888        N889   1.362   1_565  A
C888        H890   1.075       .  S
N889        C971   1.460   1_545  S
C891        H892   1.082       .  S
O896       Cr914   1.991       .  S
O896        C904   1.270       .  A
O897       Cr914   1.823       .  S
O897        C898   1.267       .  A
C898        O899   1.348       .  A
C898        C965   1.517       .  S
O899       Cr915   2.268       .  S
O900       Cr915   2.003       .  S
O900        C901   1.270       .  A
C901        O902   1.275       .  A
C901       C1261   1.492       .  S
O902       Cr916   2.015       .  S
O903       Cr916   1.962       .  S
O903        C904   1.250       .  A
C904       C1273   1.485       .  S
O905       Cr914   1.966       .  S
O905        C913   1.267       .  A
O906       Cr914   2.002       .  S
O906        C907   1.269       .  A
C907        O908   1.257       .  A
C907       C1249   1.478       .  S
O908       Cr915   1.962       .  S
O909       Cr915   2.101       .  S
O909        C910   1.301       .  A
C910        O911   1.246       .  A
C910        C980   1.449       .  S
O911       Cr916   1.863       .  S
O912       Cr916   1.994       .  S
O912        C913   1.267       .  A
C913        C990   1.451       .  S
Cr914       O917   1.591       .  S
Cr915       O917   1.730       .  S
Cr916       O917   1.743       .  S
C918        C920   1.558       .  S
C918        C922   1.541       .  S
C918        C921   1.513       .  S
C918       C1240   1.513       .  S
C919        C923   1.572       .  S
C919        C925   1.570       .  S
C919        C924   1.543       .  S
C919       C1252   1.530       .  S
C920        C928   1.399       .  A
C920        C923   1.393       .  A
C921        C932   1.361       .  A
C921        C924   1.381       .  A
C922        C936   1.386       .  A
C922        C925   1.388       .  A
C923        C926   1.400       .  A
C924        C930   1.395       .  A
C925        C933   1.402       .  A
C926        N927   1.358       .  A
C926        H939   1.077       .  S
N927        C928   1.364       .  A
N927        C977   1.453       .  S
C928        H929   1.082       .  S
C930        N931   1.367       .  A
C930        H940   1.082       .  S
N931        C932   1.352       .  A
N931       C1264   1.443       .  S
C932        H938   1.083       .  S
C933        N934   1.360       .  A
C933        H935   1.078       .  S
N934        C936   1.352       .  A
N934        C993   1.448       .  S
C936        H937   1.081       .  S
O941       Cr959   2.005       .  S
O941        C949   1.263       .  A
O942       Cr959   1.817       .  S
O942        C943   1.271       .  A
C943        O944   1.346       .  A
C943        C987   1.499       .  S
O945       Cr960   2.007       .  S
O945        C946   1.274       .  A
C946        O947   1.274       .  A
C946       C1300   1.483       .  S
O947       Cr961   2.007       .  S
O948        C949   1.251       .  A
C949       C1237   1.468       .  S
O950       Cr959   1.978       .  S
O951       Cr959   1.995       .  S
O951        C952   1.267       .  A
O953       Cr960   1.966       .  S
O954       Cr960   2.104       .  S
O954        C955   1.299       .  A
C955        O956   1.244       .  A
C955       C1002   1.458       .  S
O956       Cr961   1.867       .  S
O957       Cr961   1.977       .  S
O957        C958   1.265       .  A
C958        C968   1.444       .  S
Cr959       O962   1.599       .  S
O963       Cr981   1.991   1_545  S
O963        C971   1.263   1_545  A
O964        C965   1.265       .  A
C965        O966   1.276       .  A
O966       Cr982   2.025       .  S
O967       Cr982   1.984       .  S
O967        C968   1.263       .  A
O969       Cr983   1.949       .  S
O970       Cr983   2.045       .  S
O970        C971   1.278       .  A
O972       Cr981   2.026       .  S
O972        C980   1.265       .  A
O973       Cr981   1.952       .  S
O973        C974   1.259       .  A
C974        O975   1.267   1_565  A
C974       C1225   1.443       .  S
O976        C977   1.278       .  A
C977        O978   1.256       .  A
O978       Cr983   1.987       .  S
O979       Cr983   1.985       .  S
O979        C980   1.247       .  A
Cr981       O984   1.798       .  S
Cr983       O984   1.755       .  S
O985      Cr1003   1.986       .  S
O985        C993   1.260       .  A
O986      Cr1003   2.026       .  S
O986        C987   1.259       .  A
C987        O988   1.277       .  A
O988      Cr1004   2.024       .  S
O989      Cr1004   2.000       .  S
O989        C990   1.263       .  A
C990        O991   1.263       .  A
O991      Cr1005   1.960       .  S
O992      Cr1005   2.019       .  S
O992        C993   1.268       .  A
O994      Cr1003   2.035       .  S
O994       C1002   1.269       .  A
O995      Cr1003   1.943       .  S
O995        C996   1.256       .  A
C996        O997   1.266       .  A
C996       C1216   1.448       .  S
O997      Cr1004   1.992       .  S
O998      Cr1004   2.067       .  S
O998        C999   1.283       .  A
C999       O1000   1.251       .  A
O1000     Cr1005   1.972       .  S
O1001     Cr1005   1.982       .  S
O1001      C1002   1.252       .  A
Cr1003     O1006   1.797       .  S
Cr1004     O1006   1.764       .  S
Cr1005     O1006   1.758       .  S
C1007      C1009   1.571       .  S
C1007      C1011   1.549       .  S
C1007      C1010   1.545       .  S
C1007      C1177   1.514       .  S
C1008      C1012   1.568       .  S
C1008      C1014   1.569       .  S
C1008      C1013   1.536       .  S
C1008      C1189   1.510       .  S
C1009      C1017   1.413       .  A
C1009      C1012   1.375       .  A
C1010      C1021   1.364       .  A
C1010      C1013   1.404       .  A
C1011      C1025   1.405       .  A
C1011      C1014   1.363       .  A
C1012      C1015   1.396       .  A
C1013      C1019   1.389       .  A
C1015      N1016   1.351       .  A
C1015      H1028   1.083       .  S
N1016      C1017   1.378       .  A
N1016      C1111   1.463       .  S
C1017      H1018   1.082       .  S
C1019      N1020   1.361       .  A
N1020      C1021   1.351       .  A
N1020      C1201   1.433       .  S
C1021      H1027   1.083       .  S
C1022      N1023   1.354       .  A
C1022      H1024   1.083   1_545  S
N1023      C1127   1.460       .  S
C1025      H1026   1.080       .  S
O1030     Cr1048   2.010       .  S
O1030      C1038   1.265       .  A
O1031     Cr1048   1.818       .  S
O1031      C1032   1.270       .  A
C1032      O1033   1.351       .  A
C1032      C1121   1.508       .  S
O1033     Cr1049   2.270       .  S
O1034     Cr1049   1.995       .  S
O1034      C1035   1.270       .  A
C1035      O1036   1.275       .  A
C1035      C1165   1.486       .  S
O1036     Cr1050   2.010       .  S
O1037     Cr1050   1.947       .  S
O1037      C1038   1.252       .  A
C1038      C1180   1.472       .  S
O1039     Cr1048   1.972       .  S
O1039      C1047   1.271       .  A
O1040     Cr1048   2.018       .  S
O1040      C1041   1.273       .  A
C1041      O1042   1.255       .  A
C1041      C1156   1.474       .  S
O1042     Cr1049   1.940       .  S
O1043     Cr1049   2.116       .  S
O1043      C1044   1.303       .  A
C1044      O1045   1.245       .  A
C1044      C1136   1.470       .  S
O1045     Cr1050   1.876       .  S
O1046     Cr1050   1.983       .  S
O1046      C1047   1.266       .  A
C1047      C1102   1.448       .  S
Cr1048     O1051   1.604       .  S
Cr1049     O1051   1.719       .  S
Cr1050     O1051   1.733       .  S
C1052      C1054   1.552       .  S
C1052      C1056   1.537       .  S
C1052      C1055   1.507       .  S
C1052      C1141   1.502       .  S
C1053      C1057   1.578       .  S
C1053      C1059   1.576       .  S
C1053      C1058   1.544       .  S
C1053      C1153   1.525       .  S
C1054      C1062   1.395       .  A
C1054      C1057   1.391       .  A
C1055      C1066   1.358       .  A
C1055      C1058   1.378       .  A
C1056      C1070   1.381       .  A
C1056      C1059   1.387       .  A
C1057      C1060   1.404       .  A
C1058      C1064   1.396       .  A
C1059      C1067   1.407       .  A
C1060      N1061   1.362       .  A
C1060      H1073   1.078       .  S
N1061      C1062   1.362       .  A
N1061      C1133   1.453       .  S
C1062      H1063   1.083       .  S
C1064      N1065   1.367       .  A
C1064      H1074   1.082       .  S
N1065      C1066   1.349       .  A
N1065      C1604   1.440       .  S
C1066      H1072   1.083       .  S
C1067      N1068   1.361       .  A
C1067      H1069   1.077       .  S
N1068      C1070   1.356       .  A
N1068      C1105   1.452       .  S
C1070      H1071   1.082       .  S
O1075     Cr1093   1.993       .  S
O1075      C1083   1.265       .  A
O1076     Cr1093   1.830       .  S
O1076      C1077   1.276       .  A
C1077      O1078   1.346       .  A
C1077      C1099   1.508       .  S
O1079     Cr1094   1.987       .  S
O1079      C1080   1.269       .  A
C1080      O1081   1.274       .  A
C1080      C1204   1.472       .  S
O1081     Cr1095   2.010       .  S
O1082      C1083   1.255       .  A
C1083      C1144   1.470       .  S
O1084     Cr1093   2.001       .  S
O1085     Cr1093   1.972       .  S
O1085      C1086   1.262       .  A
O1087     Cr1094   1.926       .  S
O1088     Cr1094   2.122       .  S
O1088      C1089   1.304       .  A
C1089      O1090   1.245       .  A
C1089      C1114   1.484       .  S
O1090     Cr1095   1.891       .  S
O1091     Cr1095   1.988       .  S
O1091      C1092   1.268       .  A
C1092      C1124   1.472       .  S
Cr1093     O1096   1.610   1_565  S
O1097     Cr1115   1.965       .  S
O1097      C1105   1.260       .  A
O1098     Cr1115   2.030       .  S
O1098      C1099   1.258       .  A
C1099      O1100   1.274       .  A
O1100     Cr1116   2.032       .  S
O1101     Cr1116   1.995       .  S
O1101      C1102   1.261       .  A
C1102      O1103   1.256       .  A
O1103     Cr1117   1.945       .  S
O1104     Cr1117   2.045       .  S
O1104      C1105   1.280       .  A
O1106     Cr1115   2.037       .  S
O1106      C1114   1.266       .  A
O1107     Cr1115   1.935       .  S
O1107      C1108   1.260       .  A
C1108      O1109   1.272       .  A
C1108      C1213   1.444       .  S
O1109     Cr1116   2.007       .  S
O1110     Cr1116   2.047       .  S
O1110      C1111   1.279       .  A
C1111      O1112   1.265       .  A
O1112     Cr1117   2.007       .  S
O1113     Cr1117   2.012       .  S
O1113      C1114   1.256       .  A
Cr1115     O1118   1.798       .  S
Cr1116     O1118   1.775       .  S
Cr1117     O1118   1.763       .  S
O1119     Cr1137   1.983       .  S
O1119      C1127   1.261       .  A
O1120      C1121   1.260       .  A
C1121      O1122   1.281       .  A
O1122     Cr1138   2.037       .  S
O1123     Cr1138   2.008       .  S
O1123      C1124   1.265       .  A
O1125     Cr1139   1.966       .  S
O1126     Cr1139   2.060       .  S
O1126      C1127   1.283   1_565  A
O1128     Cr1137   2.041   1_565  S
O1128      C1136   1.266       .  A
O1129     Cr1137   1.946   1_565  S
O1129      C1130   1.255   1_565  A
C1130      C1228   1.444       .  S
O1131     Cr1138   1.994       .  S
O1132      C1133   1.280       .  A
C1133      O1134   1.257       .  A
O1134     Cr1139   1.983       .  S
O1135     Cr1139   1.987       .  S
O1135      C1136   1.247       .  A
Cr1137     O1140   1.804   1_545  S
Cr1139     O1140   1.760       .  S
C1141      C1142   1.406       .  A
C1141      C1146   1.415       .  A
C1142      C1143   1.393       .  A
C1142      H1151   1.082       .  S
C1143      C1144   1.403       .  A
C1143      S1147   1.801   1_565  S
C1144      C1145   1.401       .  A
C1145      C1146   1.395       .  A
C1145      H1152   1.082       .  S
C1146      S1148   1.807       .  S
S1147      H1150   1.407   1_545  S
S1148      H1149   1.407       .  S
C1153      C1154   1.397       .  A
C1153      C1158   1.401       .  A
C1154      C1155   1.400       .  A
C1154      H1163   1.083       .  S
C1155      C1156   1.423       .  A
C1155      S1159   1.810       .  S
C1156      C1157   1.405       .  A
C1157      C1158   1.399       .  A
C1157      H1164   1.083       .  S
C1158      S1160   1.803       .  S
S1159      H1162   1.407       .  S
S1160      H1161   1.407       .  S
C1165      C1166   1.402       .  A
C1165      C1170   1.418       .  A
C1166      C1167   1.394       .  A
C1166      H1175   1.084       .  S
C1167      C1168   1.415       .  A
C1167      S1171   1.805       .  S
C1168      C1169   1.402       .  A
C1168      N1501   1.439   1_554  S
C1169      C1170   1.406       .  A
C1169      H1176   1.083       .  S
C1170      S1172   1.797       .  S
S1171      H1610   1.407   1_554  S
S1172      H1173   1.407       .  S
H1174      S1607   1.407       .  S
C1177      C1178   1.400       .  A
C1177      C1182   1.405       .  A
C1178      C1179   1.391       .  A
C1178      H1187   1.083       .  S
C1179      C1180   1.413       .  A
C1179      S1183   1.800       .  S
C1180      C1181   1.402       .  A
C1181      C1182   1.395       .  A
C1181      H1188   1.080       .  S
C1182      S1184   1.804       .  S
S1183      H1186   1.409       .  S
S1184      H1185   1.407       .  S
C1189      C1190   1.418       .  A
C1189      C1194   1.416       .  A
C1190      C1191   1.339       .  A
C1190      H1199   1.079       .  S
C1191      C1192   1.376       .  A
C1191      S1195   1.808       .  S
C1192      C1193   1.404       .  A
C1193      C1194   1.412       .  A
C1193      H1200   1.083       .  S
C1194      S1196   1.797       .  S
S1195      H1198   1.408       .  S
S1196      H1197   1.407       .  S
C1201      C1638   1.402   1_554  A
C1201      C1642   1.408   1_554  A
C1202      C1637   1.404       .  A
C1202      C1203   1.398       .  A
C1202      H1647   1.084       .  S
C1203      C1204   1.410       .  A
C1204      C1205   1.403       .  A
C1205      C1206   1.400       .  A
C1205      H1212   1.083       .  S
C1206      C1637   1.410       .  A
C1206      S1208   1.799       .  S
S1207      H1210   1.407       .  S
S1208      H1645   1.404       .  S
H1209      S1644   1.407   1_556  S
H1211      C1638   1.083       .  S
C1213      C1214   1.399   1_455  A
C1213      C1218   1.405   1_455  A
C1214      C1215   1.388       .  A
C1214      H1223   1.085   1_655  S
C1215      C1216   1.408       .  A
C1215      S1219   1.805       .  S
C1216      C1217   1.402       .  A
C1217      C1218   1.392       .  A
C1217      H1224   1.083       .  S
C1218      S1220   1.809   1_655  S
S1219      H1222   1.407       .  S
S1220      H1221   1.407   1_455  S
C1225      C1230   1.407       .  A
C1226      C1227   1.393       .  A
C1226      H1235   1.084       .  S
C1227      S1231   1.811       .  S
C1228      C1229   1.401   1_545  A
C1229      C1230   1.390       .  A
C1229      H1236   1.085       .  S
C1230      S1232   1.805       .  S
S1231      H1234   1.407       .  S
S1232      H1233   1.407       .  S
C1237      C1238   1.401       .  A
C1237      C1242   1.413       .  A
C1238      C1239   1.396       .  A
C1238      H1247   1.082       .  S
C1239      C1240   1.409       .  A
C1239      S1243   1.805       .  S
C1240      C1241   1.399       .  A
C1241      C1242   1.390       .  A
C1241      H1248   1.083       .  S
C1242      S1244   1.801   1_565  S
S1243      H1246   1.407       .  S
S1244      H1245   1.409       .  S
C1249      C1250   1.406       .  A
C1249      C1254   1.420       .  A
C1250      C1251   1.400       .  A
C1250      H1259   1.083       .  S
C1251      C1252   1.402       .  A
C1251      S1255   1.804       .  S
C1252      C1253   1.399       .  A
C1253      C1254   1.403       .  A
C1253      H1260   1.082       .  S
C1254      S1256   1.809       .  S
S1255      H1258   1.407       .  S
S1256      H1257   1.407       .  S
C1261      C1262   1.404       .  A
C1261      C1266   1.418       .  A
C1262      C1263   1.397       .  A
C1262      H1271   1.084       .  S
C1263      C1700   1.414       .  A
C1263      S1703   1.804       .  S
C1264      C1699   1.415   1_554  A
C1264      C1701   1.404   1_554  A
C1265      C1700   1.403       .  A
C1265      C1266   1.408       .  A
C1265      H1708   1.083       .  S
C1266      S1268   1.795       .  S
S1267      C1699   1.805   1_554  S
S1267      H1270   1.407       .  S
S1268      H1269   1.407       .  S
H1272      C1701   1.083   1_554  S
C1273      C1274   1.390       .  A
C1273      C1278   1.407       .  A
C1274      C1275   1.381       .  A
C1274      H1283   1.081       .  S
C1275      C1276   1.425       .  A
C1275      S1279   1.808       .  S
C1276      C1277   1.417       .  A
C1277      C1278   1.408       .  A
C1277      H1284   1.082       .  S
C1278      S1280   1.801       .  S
S1279      H1282   1.405       .  S
S1280      H1281   1.407       .  S
C1285      C1286   1.397       .  A
C1285      C1290   1.405       .  A
C1286      H1295   1.083       .  S
C1287      S1291   1.807       .  S
C1288      C1289   1.407       .  A
C1289      C1290   1.397       .  A
C1289      H1296   1.083       .  S
C1290      S1292   1.802       .  S
S1291      H1294   1.407       .  S
S1292      H1293   1.405       .  S
C1297      C1298   1.403       .  A
C1297      C1302   1.412       .  A
C1297      N1322   1.441   1_554  S
C1298      C1299   1.397       .  A
C1298      H1307   1.084       .  S
C1299      C1300   1.412       .  A
C1299      S1303   1.804       .  S
C1300      C1301   1.406       .  A
C1301      C1302   1.411       .  A
C1301      H1308   1.081       .  S
C1302      S1304   1.804       .  S
S1304      H1741   1.407       .  S
H1305      S1740   1.406       .  S
C1309      C1311   1.562       .  S
C1309      C1313   1.542       .  S
C1309      C1312   1.518       .  S
C1309      C1712   1.515       .  S
C1310      C1314   1.559       .  S
C1310      C1316   1.577       .  S
C1310      C1315   1.553       .  S
C1310      C1721   1.526       .  S
C1311      C1319   1.397       .  A
C1311      C1314   1.382       .  A
C1312      C1323   1.365       .  A
C1312      C1315   1.389       .  A
C1313      C1327   1.380       .  A
C1313      C1316   1.379       .  A
C1314      C1317   1.403       .  A
C1315      C1321   1.392       .  A
C1317      N1318   1.361       .  A
C1317      H1330   1.078       .  S
N1318      C1319   1.367       .  A
N1318      C1435   1.455       .  S
C1319      H1320   1.083       .  S
C1321      N1322   1.366       .  A
N1322      C1323   1.353       .  A
C1323      H1329   1.083       .  S
C1324      N1325   1.361       .  A
C1324      H1326   1.077       .  S
N1325      C1407   1.462       .  S
C1327      H1328   1.080       .  S
O1332     Cr1350   1.993       .  S
O1332      C1340   1.271       .  A
O1333     Cr1350   1.828       .  S
O1333      C1334   1.269       .  A
C1334      O1335   1.350       .  A
C1334      C1401   1.520       .  S
O1335     Cr1351   2.272       .  S
O1336     Cr1351   2.000       .  S
O1336      C1337   1.271       .  A
C1337      O1338   1.275       .  A
C1337      C1697   1.490       .  S
O1338     Cr1352   2.009       .  S
O1339     Cr1352   1.955       .  S
O1339      C1340   1.248       .  A
C1340      C1709   1.482       .  S
O1341     Cr1350   1.962       .  S
O1341      C1349   1.267       .  A
O1342     Cr1350   2.011       .  S
O1342      C1343   1.271       .  A
C1343      O1344   1.256       .  A
C1343      C1685   1.477       .  S
O1344     Cr1351   1.953       .  S
O1345     Cr1351   2.106       .  S
O1345      C1346   1.300       .  A
C1346      O1347   1.244       .  A
C1346      C1416   1.451       .  S
O1347     Cr1352   1.859       .  S
O1348     Cr1352   1.977       .  S
O1348      C1349   1.264       .  A
C1349      C1426   1.437       .  S
Cr1350     O1353   1.594       .  S
Cr1351     O1353   1.725       .  S
Cr1352     O1353   1.738       .  S
C1354      C1356   1.558       .  S
C1354      C1358   1.547       .  S
C1354      C1357   1.513       .  S
C1354      C1676   1.511       .  S
C1355      C1359   1.573       .  S
C1355      C1361   1.570       .  S
C1355      C1360   1.542       .  S
C1355      C1688   1.526       .  S
C1356      C1364   1.399       .  A
C1356      C1359   1.391       .  A
C1357      C1368   1.362       .  A
C1357      C1360   1.380       .  A
C1358      C1372   1.391       .  A
C1358      C1361   1.387       .  A
C1359      C1362   1.400       .  A
C1360      C1366   1.395       .  A
C1361      C1369   1.403       .  A
C1362      N1363   1.359       .  A
C1362      H1375   1.077       .  S
N1363      C1364   1.364       .  A
N1363      C1413   1.453       .  S
C1364      H1365   1.082       .  S
C1366      N1367   1.367       .  A
C1366      H1376   1.082       .  S
N1367      C1368   1.352       .  A
N1367      C1700   1.442       .  S
C1368      H1374   1.083       .  S
C1369      N1370   1.360       .  A
C1369      H1371   1.078       .  S
N1370      C1372   1.355       .  A
N1370      C1429   1.452       .  S
C1372      H1373   1.081       .  S
O1377     Cr1395   2.002       .  S
O1377      C1385   1.263       .  A
O1378     Cr1395   1.826       .  S
O1378      C1379   1.273       .  A
C1379      O1380   1.343       .  A
C1379      C1423   1.500       .  S
O1381     Cr1396   2.009       .  S
O1381      C1382   1.274       .  A
C1382      O1383   1.273       .  A
C1382      C1736   1.481       .  S
O1383     Cr1397   2.005       .  S
O1384      C1385   1.250       .  A
C1385      C1673   1.466       .  S
O1386     Cr1395   1.984       .  S
O1387     Cr1395   1.991       .  S
O1387      C1388   1.266       .  A
O1389     Cr1396   1.965       .  S
O1390     Cr1396   2.111       .  S
O1390      C1391   1.301       .  A
C1391      O1392   1.244       .  A
C1391      C1438   1.461       .  S
O1392     Cr1397   1.862       .  S
O1393     Cr1397   1.974       .  S
O1393      C1394   1.264       .  A
C1394      C1404   1.445       .  S
Cr1395     O1398   1.602       .  S
O1399     Cr1417   1.997   1_545  S
O1399      C1407   1.262   1_545  A
O1400      C1401   1.266       .  A
C1401      O1402   1.278       .  A
O1402     Cr1418   2.033       .  S
O1403     Cr1418   1.996       .  S
O1403      C1404   1.266       .  A
O1405     Cr1419   1.949       .  S
O1406     Cr1419   2.042       .  S
O1406      C1407   1.277       .  A
O1408     Cr1417   2.030       .  S
O1408      C1416   1.266       .  A
O1409     Cr1417   1.956       .  S
O1409      C1410   1.259       .  A
C1410      O1411   1.267   1_565  A
C1410      C1661   1.446       .  S
O1412      C1413   1.278       .  A
C1413      O1414   1.256       .  A
O1414     Cr1419   1.988       .  S
O1415     Cr1419   1.984       .  S
O1415      C1416   1.248       .  A
Cr1417     O1420   1.797       .  S
Cr1419     O1420   1.752       .  S
O1421     Cr1439   1.988       .  S
O1421      C1429   1.258       .  A
O1422     Cr1439   2.030       .  S
O1422      C1423   1.262       .  A
C1423      O1424   1.275       .  A
O1424     Cr1440   2.019       .  S
O1425     Cr1440   1.985       .  S
O1425      C1426   1.259       .  A
C1426      O1427   1.261       .  A
O1427     Cr1441   1.954       .  S
O1428     Cr1441   2.023       .  S
O1428      C1429   1.270       .  A
O1430     Cr1439   2.042       .  S
O1430      C1438   1.271       .  A
O1431     Cr1439   1.945       .  S
O1431      C1432   1.255       .  A
C1432      O1433   1.263       .  A
C1432      C1652   1.442       .  S
O1433     Cr1440   1.980       .  S
O1434     Cr1440   2.066       .  S
O1434      C1435   1.283       .  A
C1435      O1436   1.252       .  A
O1436     Cr1441   1.977       .  S
O1437     Cr1441   1.978       .  S
O1437      C1438   1.252       .  A
Cr1439     O1442   1.795       .  S
Cr1440     O1442   1.762       .  S
Cr1441     O1442   1.755       .  S
C1443      C1445   1.573       .  S
C1443      C1447   1.548       .  S
C1443      C1446   1.541       .  S
C1443      C1613   1.512       .  S
C1444      C1448   1.566       .  S
C1444      C1450   1.573       .  S
C1444      C1449   1.535       .  S
C1444      C1625   1.508       .  S
C1445      C1453   1.413       .  A
C1445      C1448   1.374       .  A
C1446      C1457   1.362       .  A
C1446      C1449   1.401       .  A
C1447      C1461   1.405       .  A
C1447      C1450   1.365       .  A
C1448      C1451   1.396       .  A
C1449      C1455   1.391       .  A
C1451      N1452   1.351       .  A
C1451      H1464   1.083       .  S
N1452      C1453   1.377       .  A
N1452      C1547   1.463       .  S
C1453      H1454   1.082       .  S
C1455      N1456   1.362       .  A
N1456      C1457   1.350       .  A
N1456      C1637   1.433       .  S
C1457      H1463   1.083       .  S
C1458      N1459   1.356       .  A
C1458      H1460   1.083   1_545  S
N1459      C1563   1.461       .  S
C1461      H1462   1.079       .  S
O1466     Cr1484   2.002       .  S
O1466      C1474   1.262       .  A
O1467     Cr1484   1.820       .  S
O1467      C1468   1.270       .  A
C1468      O1469   1.348       .  A
C1468      C1557   1.506       .  S
O1469     Cr1485   2.264       .  S
O1470     Cr1485   2.000       .  S
O1470      C1471   1.271       .  A
C1471      O1472   1.275       .  A
C1471      C1601   1.486       .  S
O1472     Cr1486   2.007       .  S
O1473     Cr1486   1.944       .  S
O1473      C1474   1.250       .  A
C1474      C1616   1.466       .  S
O1475     Cr1484   1.974       .  S
O1475      C1483   1.272       .  A
O1476     Cr1484   2.005       .  S
O1476      C1477   1.271       .  A
C1477      O1478   1.258       .  A
C1477      C1592   1.472       .  S
O1478     Cr1485   1.951       .  S
O1479     Cr1485   2.108       .  S
O1479      C1480   1.301       .  A
C1480      O1481   1.246       .  A
C1480      C1572   1.466       .  S
O1481     Cr1486   1.877       .  S
O1482     Cr1486   1.981       .  S
O1482      C1483   1.267       .  A
C1483      C1538   1.444       .  S
Cr1484     O1487   1.602       .  S
Cr1485     O1487   1.720       .  S
Cr1486     O1487   1.733       .  S
C1488      C1490   1.553       .  S
C1488      C1492   1.537       .  S
C1488      C1491   1.509       .  S
C1488      C1577   1.504       .  S
C1489      C1493   1.576       .  S
C1489      C1495   1.578       .  S
C1489      C1494   1.541       .  S
C1489      C1589   1.526       .  S
C1490      C1498   1.396       .  A
C1490      C1493   1.389       .  A
C1491      C1502   1.359       .  A
C1491      C1494   1.379       .  A
C1492      C1506   1.380       .  A
C1492      C1495   1.387       .  A
C1493      C1496   1.403       .  A
C1494      C1500   1.394       .  A
C1495      C1503   1.409       .  A
C1496      N1497   1.361       .  A
C1496      H1509   1.077       .  S
N1497      C1498   1.364       .  A
N1497      C1569   1.453       .  S
C1498      H1499   1.082       .  S
C1500      N1501   1.366       .  A
C1500      H1510   1.082       .  S
N1501      C1502   1.349       .  A
C1502      H1508   1.083       .  S
C1503      N1504   1.363       .  A
C1503      H1505   1.078       .  S
N1504      C1506   1.355       .  A
N1504      C1541   1.453       .  S
C1506      H1507   1.082       .  S
O1511     Cr1529   1.990       .  S
O1511      C1519   1.263       .  A
O1512     Cr1529   1.823       .  S
O1512      C1513   1.276       .  A
C1513      O1514   1.346       .  A
C1513      C1535   1.503       .  S
O1515     Cr1530   1.989       .  S
O1515      C1516   1.269       .  A
C1516      O1517   1.274       .  A
C1516      C1640   1.471       .  S
O1517     Cr1531   2.007       .  S
O1518      C1519   1.256       .  A
C1519      C1580   1.471       .  S
O1520     Cr1529   2.002       .  S
O1521     Cr1529   1.975       .  S
O1521      C1522   1.260       .  A
O1523     Cr1530   1.929       .  S
O1524     Cr1530   2.115       .  S
O1524      C1525   1.302       .  A
C1525      O1526   1.246       .  A
C1525      C1550   1.478       .  S
O1526     Cr1531   1.889       .  S
O1527     Cr1531   1.986       .  S
O1527      C1528   1.267       .  A
C1528      C1560   1.467       .  S
Cr1529     O1532   1.611       .  S
O1533     Cr1551   1.967       .  S
O1533      C1541   1.261       .  A
O1534     Cr1551   2.030       .  S
O1534      C1535   1.257       .  A
C1535      O1536   1.272       .  A
O1536     Cr1552   2.023       .  S
O1537     Cr1552   1.992       .  S
O1537      C1538   1.261       .  A
C1538      O1539   1.255       .  A
O1539     Cr1553   1.942       .  S
O1540     Cr1553   2.046       .  S
O1540      C1541   1.280       .  A
O1542     Cr1551   2.033       .  S
O1542      C1550   1.265       .  A
O1543     Cr1551   1.933       .  S
O1543      C1544   1.259       .  A
C1544      O1545   1.271       .  A
C1544      C1649   1.441       .  S
O1545     Cr1552   2.001       .  S
O1546     Cr1552   2.044       .  S
O1546      C1547   1.277       .  A
C1547      O1548   1.265       .  A
O1548     Cr1553   2.009       .  S
O1549     Cr1553   2.010       .  S
O1549      C1550   1.255       .  A
Cr1551     O1554   1.797       .  S
Cr1552     O1554   1.774       .  S
Cr1553     O1554   1.762       .  S
O1555     Cr1573   1.981       .  S
O1555      C1563   1.262       .  A
O1556      C1557   1.261       .  A
C1557      O1558   1.279       .  A
O1558     Cr1574   2.032       .  S
O1559     Cr1574   2.002       .  S
O1559      C1560   1.263       .  A
O1561     Cr1575   1.959       .  S
O1562     Cr1575   2.064       .  S
O1562      C1563   1.284   1_565  A
O1564     Cr1573   2.044   1_565  S
O1564      C1572   1.265       .  A
O1565     Cr1573   1.952   1_565  S
O1565      C1566   1.259   1_565  A
C1566      C1664   1.449   1_545  S
O1567     Cr1574   1.995       .  S
O1568      C1569   1.280       .  A
C1569      O1570   1.255       .  A
O1570     Cr1575   1.976       .  S
O1571     Cr1575   1.984       .  S
O1571      C1572   1.242       .  A
Cr1573     O1576   1.807   1_545  S
Cr1575     O1576   1.761       .  S
C1577      C1578   1.406       .  A
C1577      C1582   1.416       .  A
C1578      C1579   1.393       .  A
C1578      H1587   1.082       .  S
C1579      C1580   1.402       .  A
C1579      S1583   1.800   1_565  S
C1580      C1581   1.401       .  A
C1581      C1582   1.397       .  A
C1581      H1588   1.082       .  S
C1582      S1584   1.808       .  S
S1583      H1586   1.407   1_545  S
S1584      H1585   1.407       .  S
C1589      C1590   1.398       .  A
C1589      C1594   1.399       .  A
C1590      C1591   1.401       .  A
C1590      H1599   1.082       .  S
C1591      C1592   1.420       .  A
C1591      S1595   1.810       .  S
C1592      C1593   1.407       .  A
C1593      C1594   1.398       .  A
C1593      H1600   1.083       .  S
C1594      S1596   1.803       .  S
S1595      H1598   1.407       .  S
S1596      H1597   1.407       .  S
C1601      C1602   1.401       .  A
C1601      C1606   1.417       .  A
C1602      C1603   1.394       .  A
C1602      H1611   1.084       .  S
C1603      C1604   1.415       .  A
C1603      S1607   1.805       .  S
C1604      C1605   1.402       .  A
C1605      C1606   1.408       .  A
C1605      H1612   1.083       .  S
C1606      S1608   1.795       .  S
S1608      H1609   1.406       .  S
C1613      C1614   1.400       .  A
C1613      C1618   1.401       .  A
C1614      C1615   1.390       .  A
C1614      H1623   1.083       .  S
C1615      C1616   1.415       .  A
C1615      S1619   1.802       .  S
C1616      C1617   1.402       .  A
C1617      C1618   1.392       .  A
C1617      H1624   1.079       .  S
C1618      S1620   1.803       .  S
S1619      H1622   1.409       .  S
S1620      H1621   1.407       .  S
C1625      C1626   1.419       .  A
C1625      C1630   1.416       .  A
C1626      C1627   1.341       .  A
C1626      H1635   1.075       .  S
C1627      C1628   1.376       .  A
C1627      S1631   1.809       .  S
C1628      C1629   1.403       .  A
C1629      C1630   1.409       .  A
C1629      H1636   1.083       .  S
C1630      S1632   1.795       .  S
S1631      H1634   1.407       .  S
S1632      H1633   1.408       .  S
C1638      C1639   1.396       .  A
C1639      C1640   1.410       .  A
C1640      C1641   1.403       .  A
C1641      C1642   1.404       .  A
C1641      H1648   1.083       .  S
C1642      S1644   1.804   1_556  S
S1643      H1646   1.406       .  S
C1649      C1650   1.400   1_455  A
C1649      C1654   1.405   1_455  A
C1650      C1651   1.387       .  A
C1650      H1659   1.085   1_655  S
C1651      C1652   1.406       .  A
C1651      S1655   1.805       .  S
C1652      C1653   1.401       .  A
C1653      C1654   1.389       .  A
C1653      H1660   1.084       .  S
C1654      S1656   1.810   1_655  S
S1655      H1658   1.407       .  S
S1656      H1657   1.407   1_455  S
C1661      C1666   1.408       .  A
C1662      C1663   1.392       .  A
C1662      H1671   1.083       .  S
C1663      S1667   1.809       .  S
C1664      C1665   1.402       .  A
C1665      C1666   1.392       .  A
C1665      H1672   1.084       .  S
C1666      S1668   1.804       .  S
S1667      H1670   1.407       .  S
S1668      H1669   1.406       .  S
C1673      C1674   1.401       .  A
C1673      C1678   1.413       .  A
C1674      C1675   1.394       .  A
C1674      H1683   1.082       .  S
C1675      C1676   1.407       .  A
C1675      S1679   1.805       .  S
C1676      C1677   1.399       .  A
C1677      C1678   1.389       .  A
C1677      H1684   1.083       .  S
C1678      S1680   1.801   1_565  S
S1679      H1682   1.407       .  S
S1680      H1681   1.409       .  S
C1685      C1686   1.406       .  A
C1685      C1690   1.421       .  A
C1686      C1687   1.401       .  A
C1686      H1695   1.083       .  S
C1687      C1688   1.403       .  A
C1687      S1691   1.804       .  S
C1688      C1689   1.397       .  A
C1689      C1690   1.396       .  A
C1689      H1696   1.084       .  S
C1690      S1692   1.802       .  S
S1691      H1694   1.407       .  S
S1692      H1693   1.407       .  S
C1697      C1698   1.403       .  A
C1697      C1702   1.417       .  A
C1698      C1699   1.394       .  A
C1698      H1707   1.084       .  S
C1701      C1702   1.409       .  A
C1702      S1704   1.797       .  S
S1703      H1706   1.408       .  S
S1704      H1705   1.407       .  S
C1709      C1710   1.389       .  A
C1709      C1714   1.403       .  A
C1710      C1711   1.386       .  A
C1710      H1719   1.080       .  S
C1711      C1712   1.432       .  A
C1711      S1715   1.805       .  S
C1712      C1713   1.418       .  A
C1713      C1714   1.402       .  A
C1713      H1720   1.082       .  S
C1714      S1716   1.802       .  S
S1715      H1718   1.407       .  S
S1716      H1717   1.407       .  S
C1721      C1722   1.398       .  A
C1721      C1726   1.404       .  A
C1722      H1731   1.082       .  S
C1723      S1727   1.807       .  S
C1724      C1725   1.407       .  A
C1725      C1726   1.395       .  A
C1725      H1732   1.083       .  S
C1726      S1728   1.802       .  S
S1727      H1730   1.407       .  S
S1728      H1729   1.404       .  S
C1733      C1734   1.403       .  A
C1733      C1738   1.415       .  A
C1734      C1735   1.398       .  A
C1734      H1743   1.084       .  S
C1735      C1736   1.411       .  A
C1735      S1739   1.804       .  S
C1736      C1737   1.405       .  A
C1737      C1738   1.407       .  A
C1737      H1744   1.081       .  S
C1738      S1740   1.801       .  S
