geometry optimzed in LAMMPS
_audit_creation_date              2020-12-01 
_audit_creation_method            'lammps2cif' 
_symmetry_space_group_name_H-M    'P1' 
_symmetry_Int_Tables_number       1 
_symmetry_cell_setting            triclinic 
loop_ 
_symmetry_equiv_pos_as_xyz 
  x,y,z 
_cell_length_a                    33.45425639 
_cell_length_b                    33.67590611131475 
_cell_length_c                    50.245932490903826 
_cell_angle_alpha                 92.97908642588274 
_cell_angle_beta                  86.553337644226 
_cell_angle_gamma                 121.07058873097 
loop_ 
_atom_site_label 
_atom_site_type_symbol 
_atom_site_fract_x 
_atom_site_fract_y 
_atom_site_fract_z 
_atom_site_charge 
N1          N  0.00853658  0.13023097  0.09284264    -0.01500
C2          C  0.03935253  0.17073309  0.10517910     0.01100
C3          C  0.07052740  0.20209959  0.08691860    -0.21800
C4          C  0.06243614  0.17873100  0.06278821    -0.22000
C5          C  0.02711544  0.13362555  0.06748247     0.01000
H6          H  0.09865660  0.23662318  0.09136580     0.14700
H7          H  0.08430984  0.19147169  0.04481140     0.14800
N8          N  0.23691995  0.18569687  0.07550668    -0.01500
C9          C  0.19485446  0.17747284  0.08486953     0.01100
C10         C  0.16986864  0.17975899  0.06492849    -0.21800
C11         C  0.19971760  0.19526595  0.04291980    -0.22000
C12         C  0.24165613  0.20103781  0.05030264     0.01000
H13         H  0.13611561  0.17610402  0.06717259     0.14700
H14         H  0.19376230  0.20781223  0.02504438     0.14800
N15         N  0.17929125  0.02183313  0.08308108    -0.01500
C16         C  0.18661315  0.32267892  0.09706578     0.01100
C17         C  0.18484303  0.29339909  0.07624843    -0.21800
C18         C  0.16930033  0.30402090  0.05489607    -0.22000
C19         C  0.16638115  0.00742930  0.05760073     0.01000
H20         H  0.18883435  0.26383024  0.07752745     0.14700
H21         H  0.15874975  0.28431987  0.03628886     0.14800
C22         C  0.24514828  0.14892122  0.08037480     0.82200
N23         N  0.20864244  0.10415374  0.08100762    -0.76100
C24         C  0.21504757  0.06940468  0.08769212     0.84600
N25         N  0.25901588  0.07943715  0.09259496    -0.76100
C26         C  0.29554495  0.12347204  0.09135514     0.84700
N27         N  0.28829377  0.15824542  0.08539489    -0.77800
N28         N  0.25225509  0.32441993  0.91278464    -0.01500
C29         C  0.28564575  0.31856185  0.92268070     0.01100
C30         C  0.31130054  0.98247338  0.90573367    -0.21800
C31         C  0.29938841  0.99228198  0.88270501    -0.22000
C32         C  0.26263928  0.99925834  0.88933364     0.01000
H33         H  0.34154409  0.98007786  0.90860144     0.14700
H34         H  0.32012022  0.00080196  0.86419667     0.14800
N35         N  0.16434546  0.17429135  0.93051829    -0.01500
C36         C  0.20455926  0.18230441  0.91697241     0.01100
C37         C  0.23776542  0.18818109  0.93434213    -0.21800
C38         C  0.21627239  0.17789055  0.95899319    -0.22000
C39         C  0.17031390  0.16524978  0.95569060     0.01000
H40         H  0.27106494  0.19119144  0.92901451     0.14700
H41         H  0.23004915  0.17134252  0.97610507     0.14800
C42         C  0.12520837  0.25018477  0.90825805     0.82200
N43         N  0.16860706  0.28953686  0.90718568    -0.76100
C44         C  0.20403585  0.29249508  0.92066634     0.84600
N45         N  0.19475162  0.25559890  0.93493420    -0.76100
C46         C  0.15737978  0.21307751  0.92953885     0.84700
N47         N  0.12059667  0.21021544  0.91720715    -0.77800
N48         N  0.08510246  0.25452942  0.90466169    -0.01500
C49         C  0.08724106  0.29170690  0.91835080     0.01100
C50         C  0.08848194  0.32307915  0.90136480    -0.21800
C51         C  0.08081783  0.30254774  0.87665411    -0.22000
C52         C  0.07543875  0.25921747  0.87920458     0.01000
H53         H  0.08920602  0.35495865  0.90686348     0.14700
H54         H  0.41029551  0.31218084  0.85905264     0.14800
O55         O  0.09950257  0.01486860  0.05540262    -0.76500
C56         C  0.02373883  0.09458716  0.04999642     0.84500
O57         O  0.29511727  0.23682303  0.01384352    -0.77700
O58         O  0.31181530  0.02923886  0.96446009    -0.79100
O59         O  0.14533865  0.10419803  0.98516535    -0.78900
O60         O  0.14157189  0.01991189  0.01790298    -0.77600
Zn61       Zn  0.03848927  0.00942789  0.04303212     1.55700
O62         O  0.09005163  0.11324178  0.96941988    -0.79000
Cd63       Cd  0.10834030  0.03458981  0.99080194     1.59700
Cd64       Cd  0.34260329  0.28703467  0.98756650     1.59600
O65         O  0.11053774  0.33958268  0.95716116    -0.79000
O66         O  0.04472471  0.01451716  0.00439066    -1.89500
Cd67       Cd  0.03166403  0.06211317  0.99155649     1.59900
O68         O  0.05098589  0.26761719  0.96202778    -0.78900
O69         O  0.02092979  0.09677496  0.02482722    -0.77600
C70         C  0.28552308  0.24006122  0.03857867     0.85000
C71         C  0.13486855  0.01606847  0.04309141     0.84600
O72         O  0.02974603  0.06349462  0.05970695    -0.76500
C73         C  0.13304213  0.12641371  0.97135633     0.85400
O74         O  0.30928719  0.27785978  0.05230835    -0.76600
C75         C  0.08448434  0.29867671  0.94776383     0.85600
C76         C  0.29805520  0.32326625  0.95061780     0.85900
O77         O  0.30759078  0.29376630  0.95813150    -0.79000
N78         N  0.29510237  0.25014076  0.74591064    -0.01500
C79         C  0.30079178  0.21552864  0.75321506     0.01100
C80         C  0.31117284  0.19571310  0.73117875    -0.21800
C81         C  0.30907264  0.21708732  0.70935321    -0.22000
C82         C  0.29644201  0.24850974  0.71877739     0.01000
H83         H  0.31572188  0.16626441  0.73079612     0.14700
H84         H  0.30809285  0.20474696  0.68892643     0.14800
N85         N  0.11042153  0.99270808  0.76890759    -0.01500
C86         C  0.10787285  0.27933359  0.76045087     0.01100
C87         C  0.10596891  0.25453042  0.78207127    -0.21800
C88         C  0.11528784  0.95574358  0.80376212    -0.22000
C89         C  0.11566775  0.99461788  0.79580907     0.01000
H90         H  0.10793619  0.22340069  0.78164616     0.14700
H91         H  0.12325941  0.94982435  0.82320317     0.14800
N92         N  0.03065484  0.07321635  0.74615770    -0.01500
C93         C  0.99259981  0.07477562  0.75558550     0.01100
C94         C  0.96626747  0.07326792  0.73507484    -0.21800
C95         C  0.99137672  0.07619056  0.71202215    -0.22000
C96         C  0.03213743  0.07929705  0.71943517     0.01000
H97         H  0.93385695  0.07312489  0.73690720     0.14700
H98         H  0.98414500  0.08295916  0.69258419     0.14800
C99         C  0.07115293  0.99432963  0.76083149     0.82200
N100        N  0.03001177  0.28342971  0.75473559    -0.76100
C101        C  0.31816049  0.29374678  0.76019464     0.84600
N102        N  0.31880429  0.99538814  0.75020165    -0.76100
C103        C  0.03115705  0.03283483  0.75324611     0.84700
N104        N  0.07183954  0.03482431  0.75834706    -0.77800
O105        O  0.27454485  0.15170627  0.77882671    -0.76500
C106        C  0.30853743  0.08169247  0.78289944     0.84500
O107        O  0.15259195  0.03665228  0.83503216    -0.77700
O108        O  0.29532085  0.06153803  0.86031281    -0.79100
O109        O  0.34046893  0.22522920  0.85791907    -0.78900
O110        O  0.28421080  0.21454338  0.80123684    -0.77600
Zn111      Zn  0.24289843  0.10166506  0.80246927     1.55700
O112        O  0.03592162  0.18070432  0.86048541    -0.79000
Cd113      Cd  0.27628519  0.18885656  0.84059006     1.59700
Cd114      Cd  0.20673429  0.08138180  0.85971618     1.59600
O115        O  0.23259482  0.19328262  0.87159056    -0.79000
O116        O  0.26111177  0.12418073  0.83726487    -1.89500
Cd117      Cd  0.31816426  0.12048116  0.83930747     1.59900
O118        O  0.19366603  0.12116975  0.88774263    -0.78900
O119        O  0.00943595  0.10961132  0.79985117    -0.77600
C120        C  0.14713002  0.03791740  0.81019070     0.85000
C121        C  0.28661960  0.19382386  0.77947725     0.84600
O122        O  0.26530947  0.05997241  0.78940719    -0.76500
C123        C  0.03907454  0.22027119  0.86273287     0.85400
O124        O  0.17570979  0.07229350  0.79643818    -0.76600
C125        C  0.20750812  0.16435957  0.88988477     0.85600
C126        C  0.25984458  0.03476276  0.87513982     0.85900
O127        O  0.22428724  0.03928952  0.87869272    -0.79000
N128        N  0.18601207  0.13442527  0.57472542    -0.01500
C129        C  0.19195089  0.17512398  0.58422207     0.01100
C130        C  0.18947760  0.20008901  0.56432233    -0.21800
C131        C  0.17677657  0.17165965  0.54202064    -0.22000
C132        C  0.17256035  0.13047505  0.54920374     0.01000
H133        H  0.19130728  0.23280060  0.56665478     0.14700
H134        H  0.16462726  0.17763143  0.52400071     0.14800
N135        N  0.01605058  0.19914427  0.59045786    -0.01500
C136        C  0.04979863  0.19164503  0.59796730     0.01100
C137        C  0.07721643  0.19155468  0.57631856    -0.21800
C138        C  0.06486279  0.20595897  0.55522466    -0.22000
C139        C  0.02942719  0.21288366  0.56475963     0.01000
H140        H  0.10653402  0.18668720  0.57666418     0.14700
H141        H  0.08307441  0.21522534  0.53593328     0.14800
N142        N  0.24136161  0.03149887  0.59032117    -0.01500
C143        C  0.20035749  0.00113455  0.60285287     0.01100
C144        C  0.17539095  0.30370936  0.58636468    -0.21800
C145        C  0.19868496  0.31245611  0.56202357    -0.22000
C146        C  0.23831875  0.01302219  0.56517689     0.01000
H147        H  0.14186780  0.27399243  0.59136823     0.14700
H148        H  0.18670988  0.29021098  0.54437119     0.14800
C149        C  0.22318388  0.12713614  0.58048256     0.82200
N150        N  0.21455393  0.08428259  0.58498617    -0.76100
C151        C  0.24981103  0.07775251  0.59121590     0.84600
N152        N  0.29366038  0.11471606  0.59313233    -0.76100
C153        C  0.30295534  0.15841654  0.58871426     0.84700
N154        N  0.26768264  0.16408908  0.58191493    -0.77800
O155        O  0.21934222  0.22749636  0.71633350    -0.76500
C156        C  0.11704231  0.26685285  0.73281017     0.84500
O157        O  0.07560394  0.11234096  0.67937549    -0.77700
O158        O  0.06172545  0.21798307  0.64431799    -0.79100
O159        O  0.23063302  0.32561073  0.64529105    -0.78900
O160        O  0.26662365  0.26413431  0.68129221    -0.77600
Zn161      Zn  0.15566032  0.20918193  0.70820327     1.55700
O162        O  0.15773801  0.31028357  0.64322493    -0.79000
Cd163      Cd  0.21742258  0.26169060  0.65643996     1.57300
Cd164      Cd  0.12275664  0.16447019  0.65457012     1.59600
O165        O  0.21404356  0.23010202  0.61972056    -0.79000
O166        O  0.15356310  0.22503053  0.67324271    -1.89500
Cd167      Cd  0.11796606  0.25778856  0.67062810     1.59900
O168        O  0.16893328  0.15560659  0.62953743    -0.78900
O169        O  0.10559882  0.27714272  0.71120973    -0.77600
C170        C  0.07548414  0.11165471  0.70470219     0.85000
C171        C  0.25951762  0.24833611  0.70479198     0.84600
O172        O  0.13681252  0.24338533  0.73211307    -0.76500
C173        C  0.19926114  0.32744330  0.63319868     0.85400
O174        O  0.10873052  0.14345304  0.71793350    -0.76600
C175        C  0.19325014  0.18743562  0.61278095     0.85600
C176        C  0.06369617  0.19181045  0.62533776     0.85900
O177        O  0.08543375  0.17063361  0.62736224    -0.79000
N178        N  0.20292071  0.21814476  0.42876314    -0.01500
C179        C  0.19572370  0.17814405  0.41567464     0.01100
C180        C  0.19010796  0.14546308  0.43332296    -0.21800
C181        C  0.20024598  0.16691624  0.45766873    -0.22000
C182        C  0.21240785  0.21235772  0.45395658     0.01000
H183        H  0.18715948  0.11239508  0.42831621     0.14700
H184        H  0.20655882  0.15326308  0.47493809     0.14800
N185        N  0.05294460  0.12559260  0.41202907    -0.01500
C186        C  0.04498942  0.11431777  0.38569302     0.01100
C187        C  0.05541305  0.08061837  0.37767548    -0.21800
C188        C  0.06620650  0.06757156  0.40006438    -0.22000
C189        C  0.06176086  0.09351095  0.42082919     0.01000
H190        H  0.37852619  0.06062142  0.36183752     0.14700
H191        H  0.07133329  0.03867291  0.40154493     0.14800
N192        N  0.11296033  0.29094774  0.40754104    -0.01500
C193        C  0.07322904  0.28451126  0.42071388     0.01100
C194        C  0.04909116  0.94914374  0.40177132    -0.21800
C195        C  0.07178943  0.95654329  0.37750053    -0.22000
C196        C  0.11604292  0.96461213  0.38170254     0.01000
H197        H  0.01622068  0.94757390  0.40614933     0.14700
H198        H  0.06082899  0.96484775  0.35982363     0.14800
C199        C  0.12055894  0.25255837  0.40955456     0.82200
N200        N  0.08250880  0.20840991  0.40842723    -0.76100
C201        C  0.08234303  0.17340242  0.42075717     0.84600
N202        N  0.12037568  0.18405438  0.43429766    -0.76100
C203        C  0.16209068  0.22261883  0.42846090     0.84700
N204        N  0.16232833  0.25894022  0.41714854    -0.77800
O205        O  0.31021387  0.01392625  0.55839944    -0.76500
C206        C  0.01830097  0.24235226  0.55005472     0.84500
O207        O  0.13836090  0.07824400  0.51259762    -0.77700
O208        O  0.02370294  0.26365889  0.45945135    -0.79100
O209        O  0.26714660  0.29236467  0.46631811    -0.78900
O210        O  0.27621766  0.01935419  0.52263084    -0.77600
Zn211      Zn  0.03018210  0.00676170  0.54306801     1.55700
O212        O  0.26593716  0.23641643  0.48810872    -0.79000
Cd213      Cd  0.31468748  0.01234042  0.48995635     1.59700
Cd214      Cd  0.08827025  0.03181394  0.48629634     1.59600
O215        O  0.01666236  0.06693157  0.46147209    -0.79000
O216        O  0.02555365  0.99909351  0.50478148    -1.89500
Cd217      Cd  0.99738910  0.26559816  0.49757965     1.59900
O218        O  0.08384541  0.06744462  0.45600095    -0.78900
O219        O  0.01121372  0.23291399  0.52531281    -0.77600
C220        C  0.13427694  0.08713200  0.53732657     0.85000
C221        C  0.27820666  0.01763146  0.54794827     0.84600
O222        O  0.02217461  0.27933933  0.56108443    -0.76500
C223        C  0.24936338  0.24934063  0.47061292     0.85400
O224        O  0.09590578  0.06333826  0.55098310    -0.76600
C225        C  0.05480304  0.07769065  0.44835303     0.85600
C226        C  0.06559894  0.28620511  0.45000974     0.85900
O227        O  0.10339997  0.98725823  0.46310693    -0.79000
N228        N  0.28524703  0.00939448  0.24627500    -0.01500
C229        C  0.28306079  0.04660526  0.25601259     0.01100
C230        C  0.28137868  0.07178000  0.23586780    -0.21800
C231        C  0.22354618  0.33071796  0.22235554    -0.22000
C232        C  0.25489750  0.31588681  0.22346400     0.01000
H233        H  0.28013184  0.10328298  0.23790748     0.14700
H234        H  0.20130795  0.32512332  0.20605631     0.14800
N235        N  0.11417627  0.07820682  0.24987742    -0.01500
C236        C  0.11171251  0.07423751  0.22276814     0.01100
C237        C  0.14174843  0.06034475  0.21214842    -0.21800
C238        C  0.16697492  0.06097793  0.23277263    -0.22000
C239        C  0.15045229  0.07361451  0.25547744     0.01000
H240        H  0.15085458  0.05876112  0.19122933     0.14700
H241        H  0.19624222  0.05589090  0.23097788     0.14800
N242        N  0.06134544  0.27654108  0.26992551    -0.01500
C243        C  0.10044670  0.27589058  0.26137850     0.01100
C244        C  0.12447628  0.27627525  0.28298827    -0.21800
C245        C  0.09857391  0.27464347  0.30538759    -0.22000
C246        C  0.05836547  0.27130036  0.29686307     0.01000
H247        H  0.15501551  0.27294581  0.28246246     0.14700
H248        H  0.10409606  0.26697260  0.32502778     0.14800
C249        C  0.99368108  0.01330805  0.25479924     0.82200
N250        N  0.03431484  0.05464051  0.25786746    -0.76100
C251        C  0.07218610  0.05553374  0.26624720     0.84600
N252        N  0.06439431  0.01737744  0.27839537    -0.76100
C253        C  0.05694897  0.31370335  0.26103948     0.84700
N254        N  0.01473224  0.31072298  0.25988171    -0.77800
O255        O  0.13459105  0.24361685  0.23364873    -0.76500
C256        C  0.11081569  0.11010350  0.20808228     0.84500
O257        O  0.26052042  0.29018156  0.18018612    -0.77700
O258        O  0.13909497  0.15711903  0.12064316    -0.79100
O259        O  0.06431889  0.21973958  0.14374491    -0.78900
O260        O  0.09909445  0.27220507  0.21187459    -0.77600
Zn261      Zn  0.15782745  0.21275364  0.20926889     1.55700
O262        O  0.04486656  0.14635231  0.14766929    -0.79000
Cd263      Cd  0.11711894  0.25745114  0.17104541     1.59700
Cd264      Cd  0.20830651  0.24678616  0.15470688     1.59600
O265        O  0.15950069  0.31237107  0.14371299    -0.79000
O266        O  0.14595465  0.21806989  0.17385060    -1.89500
Cd267      Cd  0.10762505  0.15503142  0.15764425     1.59900
O268        O  0.20589633  0.28671377  0.12741364    -0.78900
O269        O  0.10275159  0.10515159  0.18317410    -0.77600
C270        C  0.25278447  0.28047522  0.20469947     0.85000
C271        C  0.11144637  0.26385937  0.23386069     0.84600
O272        O  0.12631441  0.14867119  0.22041066    -0.76500
C273        C  0.04624911  0.17821276  0.13434680     0.85400
O274        O  0.22670119  0.23861048  0.21125780    -0.76600
C275        C  0.18583075  0.30946098  0.12489788     0.85600
C276        C  0.18207912  0.17614395  0.11347973     0.85900
O277        O  0.21425637  0.19902007  0.13005641    -0.79000
O278        O  0.30938320  0.10466793  0.28960311    -0.76500
C279        C  0.17501823  0.08829667  0.28078258     0.84500
O280        O  0.01329267  0.22944687  0.33496952    -0.77700
O281        O  0.18183736  0.14526028  0.37176035    -0.79100
O282        O  0.19473541  0.00698098  0.36285586    -0.78900
O283        O  0.25844822  0.03365174  0.30211533    -0.77600
Zn284      Zn  0.26967216  0.12981255  0.30167363     1.55700
O285        O  0.14780027  0.03512219  0.35921955    -0.79000
Cd286      Cd  0.25285738  0.05782844  0.34089567     1.59700
Cd287      Cd  0.29407986  0.16907917  0.35836994     1.59600
O288        O  0.31275287  0.08057268  0.36081069    -0.79000
O289        O  0.24907550  0.11438610  0.33727853    -1.89500
Cd290      Cd  0.18405312  0.09958216  0.34167391     1.59900
O291        O  0.00472099  0.15269976  0.37628631    -0.78900
O292        O  0.15599738  0.09138753  0.30319038    -0.77600
C293        C  0.33888111  0.22558914  0.30766508     0.85000
C294        C  0.28570513  0.06162076  0.28423533     0.84600
O295        O  0.21733302  0.09954563  0.27876523    -0.76500
C296        C  0.15529434  0.00404705  0.36709364     0.85400
O297        O  0.30449651  0.19632065  0.29432113    -0.76600
C298        C  0.00976965  0.11793766  0.37167966     0.85600
C299        C  0.21230436  0.17345217  0.38835489     0.85900
O300        O  0.25584925  0.18746916  0.38517471    -0.79000
N301        N  0.01016252  0.46681177  0.09012245    -0.01500
C302        C  0.04014246  0.50672770  0.10302133     0.01100
C303        C  0.07217310  0.53874187  0.08533394    -0.21800
C304        C  0.06488000  0.51616530  0.06089688    -0.22000
C305        C  0.02930706  0.47087709  0.06498397     0.01000
H306        H  0.09954234  0.57336785  0.09027247     0.14700
H307        H  0.08690828  0.52969184  0.04304298     0.14800
N308        N  0.23479827  0.51710262  0.07328800    -0.01500
C309        C  0.19266775  0.51077132  0.08067886     0.01100
C310        C  0.17087436  0.51380765  0.05928710    -0.21800
C311        C  0.20260604  0.52691046  0.03819913    -0.22000
C312        C  0.24283339  0.53140493  0.04762078     0.01000
H313        H  0.13791134  0.51175455  0.05972383     0.14700
H314        H  0.19928040  0.53923355  0.01944801     0.14800
N315        N  0.17815687  0.35521738  0.08857568    -0.01500
C316        C  0.18609597  0.65814462  0.09756649     0.01100
C317        C  0.18584053  0.63041764  0.07620328    -0.21800
C318        C  0.17070953  0.64214075  0.05508711    -0.22000
C319        C  0.16352998  0.34039872  0.06325282     0.01000
H320        H  0.19006610  0.60078186  0.07685753     0.14700
H321        H  0.16087689  0.62344586  0.03614282     0.14800
C322        C  0.24294881  0.48151593  0.08121937     0.82200
N323        N  0.20642827  0.43724156  0.08492217    -0.76100
C324        C  0.21374771  0.40330677  0.09240896     0.84600
N325        N  0.25850251  0.41411768  0.09583153    -0.76100
C326        C  0.29480124  0.45772302  0.09171392     0.84700
N327        N  0.28670343  0.49115272  0.08430745    -0.77800
N328        N  0.24964149  0.65334887  0.91385941    -0.01500
C329        C  0.28252931  0.64520306  0.92209131     0.01100
C330        C  0.31441109  0.31616969  0.90282128    -0.21800
C331        C  0.30171499  0.32508973  0.87975028    -0.22000
C332        C  0.26548874  0.33278504  0.88655265     0.01000
H333        H  0.34418723  0.31282725  0.90537389     0.14700
H334        H  0.32137498  0.33210589  0.86090439     0.14800
N335        N  0.16261788  0.50336841  0.92715985    -0.01500
C336        C  0.20278705  0.51300028  0.91270262     0.01100
C337        C  0.23693339  0.51866202  0.92932468    -0.21800
C338        C  0.21617025  0.50562359  0.95397421    -0.22000
C339        C  0.17004859  0.49286456  0.95164611     0.01000
H340        H  0.27048763  0.52287401  0.92318595     0.14700
H341        H  0.23109377  0.49892281  0.97046694     0.14800
C342        C  0.12289466  0.58261100  0.91118562     0.82200
N343        N  0.16620830  0.62199068  0.91126751    -0.76100
C344        C  0.20191221  0.62265467  0.92306041     0.84600
N345        N  0.19240682  0.58396570  0.93549085    -0.76100
C346        C  0.15528330  0.54222940  0.92851407     0.84700
N347        N  0.11844745  0.54115245  0.91719123    -0.77800
N348        N  0.08303534  0.58726120  0.90718820    -0.01500
C349        C  0.08586523  0.62543514  0.92005760     0.01100
C350        C  0.08786370  0.65621501  0.90228938    -0.21800
C351        C  0.07970839  0.63427646  0.87794258    -0.22000
C352        C  0.07347526  0.59082545  0.88149321     0.01000
H353        H  0.08922319  0.68861989  0.90702975     0.14700
H354        H  0.40648851  0.64268068  0.85736193     0.14800
O355        O  0.09830333  0.35003713  0.05925603    -0.76500
C356        C  0.02656440  0.43167289  0.04809174     0.84500
O357        O  0.29816958  0.56696171  0.01218129    -0.77700
O358        O  0.30838366  0.36057313  0.96396228    -0.79100
O359        O  0.14639791  0.43977993  0.98633437    -0.78900
O360        O  0.14370218  0.35721492  0.02299647    -0.77600
Zn361      Zn  0.03891462  0.34499473  0.04462090     1.55700
O362        O  0.09008863  0.44163986  0.96636091    -0.79000
Cd363      Cd  0.11146163  0.37044075  0.99415309     1.59700
Cd364      Cd  0.34482039  0.61716208  0.98595542     1.59600
O365        O  0.10755763  0.67488422  0.95847482    -0.79000
O366        O  0.04651916  0.34844817  0.00590892    -1.89500
Cd367      Cd  0.03290442  0.39426436  0.99078418     1.59900
O368        O  0.04967197  0.60220773  0.96385345    -0.78900
O369        O  0.02484203  0.43302941  0.02274298    -0.77600
C370        C  0.28782217  0.57013062  0.03677159     0.85000
C371        C  0.13463073  0.35181630  0.04802517     0.84600
O372        O  0.03073189  0.40023785  0.05889614    -0.76500
C373        C  0.13335699  0.45720551  0.96936644     0.85400
O374        O  0.31096367  0.60801352  0.05057955    -0.76600
C375        C  0.08248170  0.63351268  0.94936265     0.85600
C376        C  0.29894554  0.65212877  0.94923684     0.85900
O377        O  0.30883220  0.62287813  0.95673592    -0.79000
N378        N  0.29201681  0.58139143  0.74168401    -0.01500
C379        C  0.29297362  0.54342883  0.74790828     0.01100
C380        C  0.29994059  0.52269927  0.72509586    -0.21800
C381        C  0.30108635  0.54745986  0.70404552    -0.22000
C382        C  0.29302736  0.58150770  0.71461553     0.01000
H383        H  0.30059813  0.49107918  0.72362085     0.14700
H384        H  0.29864661  0.53598835  0.68334684     0.14800
N385        N  0.10715241  0.31806674  0.76870687    -0.01500
C386        C  0.10254235  0.61743285  0.75836587     0.01100
C387        C  0.09894569  0.59043739  0.77930089    -0.21800
C388        C  0.10692918  0.27987138  0.80433933    -0.22000
C389        C  0.11112883  0.32024062  0.79563818     0.01000
H390        H  0.09905402  0.55829311  0.77792373     0.14700
H391        H  0.11384693  0.27385054  0.82402952     0.14800
N392        N  0.03475874  0.40705979  0.74815129    -0.01500
C393        C  0.99710155  0.40909584  0.75805383     0.01100
C394        C  0.97043002  0.40810563  0.73789971    -0.21800
C395        C  0.99508850  0.41142860  0.71465949    -0.22000
C396        C  0.03609436  0.41462848  0.72158814     0.01000
H397        H  0.93814917  0.40824842  0.74009380     0.14700
H398        H  0.98769321  0.41904558  0.69550438     0.14800
C399        C  0.07060645  0.32294995  0.75923468     0.82200
N400        N  0.02255271  0.61998374  0.76463201    -0.76100
C401        C  0.31892868  0.62390407  0.75632628     0.84600
N402        N  0.32165835  0.33115106  0.74919438    -0.76100
C403        C  0.03311577  0.36482850  0.75374076     0.84700
N404        N  0.07251349  0.36446683  0.75922458    -0.77800
O405        O  0.26920978  0.47995001  0.77386637    -0.76500
C406        C  0.31230585  0.41595129  0.77963442     0.84500
O407        O  0.15208101  0.36435295  0.83356033    -0.77700
O408        O  0.29624596  0.39265158  0.85603111    -0.79100
O409        O  0.33973570  0.55595599  0.85363958    -0.78900
O410        O  0.28102085  0.54346524  0.79643852    -0.77600
Zn411      Zn  0.24273770  0.43050145  0.79855409     1.55700
O412        O  0.03454464  0.51190034  0.86336411    -0.79000
Cd413      Cd  0.27507529  0.51902810  0.83617332     1.59700
Cd414      Cd  0.20714858  0.41195850  0.85658678     1.59600
O415        O  0.23073261  0.52309209  0.86721023    -0.79000
O416        O  0.26048405  0.45450340  0.83322960    -1.89500
Cd417      Cd  0.31824114  0.45205424  0.83585172     1.59900
O418        O  0.19220065  0.45139705  0.88389335    -0.78900
O419        O  0.01206328  0.44260675  0.80267805    -0.77600
C420        C  0.14612737  0.36320691  0.80862667     0.85000
C421        C  0.28106514  0.52208904  0.77441878     0.84600
O422        O  0.26923300  0.39207058  0.78611119    -0.76500
C423        C  0.03723099  0.55125882  0.86528197     0.85400
O424        O  0.17547812  0.39487551  0.79347301    -0.76600
C425        C  0.20541798  0.49446382  0.88563061     0.85600
C426        C  0.26186482  0.36719393  0.87185060     0.85900
O427        O  0.22693881  0.37251952  0.87620512    -0.79000
N428        N  0.18619744  0.46688847  0.57613819    -0.01500
C429        C  0.19160172  0.50811895  0.58415086     0.01100
C430        C  0.19002077  0.53159033  0.56305502    -0.21800
C431        C  0.17810751  0.50150317  0.54152550    -0.22000
C432        C  0.17305082  0.46081441  0.55038849     0.01000
H433        H  0.19191320  0.56447137  0.56395885     0.14700
H434        H  0.16657192  0.50604857  0.52284118     0.14800
N435        N  0.01596042  0.52930296  0.58937766    -0.01500
C436        C  0.04807808  0.51990840  0.59730880     0.01100
C437        C  0.07661486  0.52048241  0.57608530    -0.21800
C438        C  0.06612985  0.53671084  0.55491840    -0.22000
C439        C  0.03060340  0.54389400  0.56396237     0.01000
H440        H  0.10569546  0.51528812  0.57690359     0.14700
H441        H  0.08539678  0.54662448  0.53595349     0.14800
N442        N  0.24636489  0.36756738  0.59131612    -0.01500
C443        C  0.20609196  0.33607281  0.60414111     0.01100
C444        C  0.17039718  0.63436982  0.58394668    -0.21800
C445        C  0.19428876  0.64332456  0.55977691    -0.22000
C446        C  0.24318402  0.34941751  0.56602396     0.01000
H447        H  0.13664087  0.60493969  0.58876207     0.14700
H448        H  0.18285959  0.62115416  0.54207261     0.14800
C449        C  0.22407843  0.46112257  0.58281317     0.82200
N450        N  0.21701593  0.41863644  0.58683518    -0.76100
C451        C  0.25332975  0.41335560  0.59257136     0.84600
N452        N  0.29678260  0.45118987  0.59416978    -0.76100
C453        C  0.30457547  0.49447428  0.59008592     0.84700
N454        N  0.26815630  0.49888857  0.58405017    -0.77800
O455        O  0.21802738  0.56671470  0.71444537    -0.76500
C456        C  0.11456741  0.60680814  0.73086927     0.84500
O457        O  0.08037442  0.44632017  0.68158576    -0.77700
O458        O  0.05748794  0.54689919  0.64332189    -0.79100
O459        O  0.22424398  0.66070709  0.64424349    -0.78900
O460        O  0.26352794  0.59985796  0.67820782    -0.77600
Zn461      Zn  0.15470990  0.55001990  0.70794875     1.55700
O462        O  0.15059109  0.64173651  0.64042313    -0.79000
Cd463      Cd  0.21336935  0.59756125  0.65458078     1.57300
Cd464      Cd  0.12300742  0.49855924  0.65539459     1.59600
O465        O  0.20967632  0.56542110  0.61804117    -0.79000
O466        O  0.15064381  0.56065783  0.67244790    -1.89500
Cd467      Cd  0.11291295  0.59084476  0.66896501     1.59900
O468        O  0.17039143  0.49177974  0.63001943    -0.78900
O469        O  0.09930024  0.61180782  0.70900554    -0.77600
C470        C  0.07852302  0.44909952  0.70698696     0.85000
C471        C  0.25723858  0.58493627  0.70185886     0.84600
O472        O  0.13850482  0.58751432  0.73087474    -0.76500
C473        C  0.19257309  0.65992695  0.63101452     0.85400
O474        O  0.10780757  0.48525259  0.71970076    -0.76600
C475        C  0.19203534  0.52253543  0.61231866     0.85600
C476        C  0.06077349  0.52048859  0.62498517     0.85900
O477        O  0.08302044  0.50004397  0.62792880    -0.79000
N478        N  0.20519871  0.54919490  0.42721995    -0.01500
C479        C  0.19703625  0.50900034  0.41388895     0.01100
C480        C  0.19335071  0.47687277  0.43141155    -0.21800
C481        C  0.20564685  0.49885617  0.45555210    -0.22000
C482        C  0.21602344  0.54370837  0.45207277     0.01000
H483        H  0.19070097  0.44399719  0.42617974     0.14700
H484        H  0.21316628  0.48567373  0.47257670     0.14800
N485        N  0.05355401  0.45890628  0.41576394    -0.01500
C486        C  0.04567173  0.44727532  0.38947504     0.01100
C487        C  0.05885361  0.41566001  0.38127573    -0.21800
C488        C  0.07116179  0.40399430  0.40360041    -0.22000
C489        C  0.06392946  0.42790809  0.42444776     0.01000
H490        H  0.38241772  0.39457750  0.35958483     0.14700
H491        H  0.07924628  0.37717905  0.40508871     0.14800
N492        N  0.11621955  0.62367810  0.40748139    -0.01500
C493        C  0.07667782  0.61785873  0.42058229     0.01100
C494        C  0.04348147  0.28652894  0.40377921    -0.21800
C495        C  0.06724733  0.29976414  0.37980282    -0.22000
C496        C  0.11071744  0.30528561  0.38289730     0.01000
H497        H  0.01093287  0.28505518  0.40922086     0.14700
H498        H  0.05683520  0.31161994  0.36339768     0.14800
C499        C  0.12307101  0.58498644  0.41005477     0.82200
N500        N  0.08433096  0.54130872  0.41048130    -0.76100
C501        C  0.08440846  0.50698131  0.42334887     0.84600
N502        N  0.12366413  0.51779964  0.43566951    -0.76100
C503        C  0.16519854  0.55505313  0.42807617     0.84700
N504        N  0.16528324  0.59093536  0.41631727    -0.77800
O505        O  0.31343192  0.34720560  0.55842218    -0.76500
C506        C  0.01906541  0.57293943  0.54909465     0.84500
O507        O  0.13773361  0.40608389  0.51506636    -0.77700
O508        O  0.02632845  0.59498455  0.45884805    -0.79100
O509        O  0.26678751  0.62422795  0.46479847    -0.78900
O510        O  0.28155700  0.35773266  0.52336055    -0.77600
Zn511      Zn  0.02844638  0.33870799  0.54564473     1.55700
O512        O  0.26404842  0.57000776  0.48893764    -0.79000
Cd513      Cd  0.31749192  0.34805128  0.49007765     1.59700
Cd514      Cd  0.08656205  0.36159974  0.48880570     1.59600
O515        O  0.01650123  0.39887048  0.46408319    -0.79000
O516        O  0.02413346  0.33082128  0.50745853    -1.89500
Cd517      Cd  0.99705135  0.59512521  0.49623751     1.59900
O518        O  0.08403758  0.39982677  0.45944749    -0.78900
O519        O  0.01124253  0.56296141  0.52442806    -0.77600
C520        C  0.13380975  0.41703705  0.53943068     0.85000
C521        C  0.28286351  0.35384589  0.54854286     0.84600
O522        O  0.02262183  0.60982272  0.56010906    -0.76500
C523        C  0.24924709  0.58152922  0.46984099     0.85400
O524        O  0.09498209  0.39539415  0.55307720    -0.76600
C525        C  0.05539013  0.41046368  0.45161827     0.85600
C526        C  0.06834449  0.61880825  0.44983497     0.85900
O527        O  0.09862810  0.31598869  0.46446688    -0.79000
N528        N  0.27421089  0.32624164  0.24757575    -0.01500
C529        C  0.25441010  0.34733389  0.26181393     0.01100
C530        C  0.22296510  0.35040823  0.24681273    -0.21800
C531        C  0.21620306  0.65122360  0.22401861    -0.22000
C532        C  0.24882352  0.63791269  0.22415637     0.01000
H533        H  0.20206627  0.36554859  0.25288767     0.14700
H534        H  0.19084436  0.64225355  0.20899006     0.14800
N535        N  0.13783859  0.43036367  0.23997843    -0.01500
C536        C  0.14270014  0.43679513  0.21324928     0.01100
C537        C  0.18880144  0.45578494  0.20474845    -0.21800
C538        C  0.21321759  0.46148236  0.22694062    -0.22000
C539        C  0.18121300  0.44552189  0.24838205     0.01000
H540        H  0.20376866  0.46851262  0.18509581     0.14700
H541        H  0.25063264  0.47651398  0.22742560     0.14800
N542        N  0.05093188  0.60186337  0.26864214    -0.01500
C543        C  0.09034164  0.60207578  0.25958123     0.01100
C544        C  0.11573752  0.60352820  0.28073313    -0.21800
C545        C  0.09054791  0.60160386  0.30345905    -0.22000
C546        C  0.04927286  0.59663200  0.29554649     0.01000
H547        H  0.14690047  0.60123379  0.27969650     0.14700
H548        H  0.09742217  0.59475757  0.32297530     0.14800
C549        C  0.01375215  0.34961547  0.25448933     0.82200
N550        N  0.05480423  0.39027574  0.25002631    -0.76100
C551        C  0.09634024  0.39316306  0.25179770     0.84600
N552        N  0.09681723  0.35495798  0.25750084    -0.76100
C553        C  0.04752904  0.64021772  0.26085246     0.84700
N554        N  0.00581985  0.63780235  0.25857823    -0.77800
O555        O  0.12184623  0.56787249  0.23147543    -0.76500
C556        C  0.11180871  0.44554805  0.19857932     0.84500
O557        O  0.25479766  0.61092526  0.18151801    -0.77700
O558        O  0.13440747  0.49547896  0.11427468    -0.79100
O559        O  0.05877942  0.55421000  0.14218307    -0.78900
O560        O  0.09208200  0.60253442  0.21012063    -0.77600
Zn561      Zn  0.14448057  0.53737784  0.20659323     1.55700
O562        O  0.04046289  0.48132818  0.14619273    -0.79000
Cd563      Cd  0.11190580  0.58972610  0.16939409     1.59700
Cd564      Cd  0.20375008  0.57667329  0.15350508     1.59600
O565        O  0.15650869  0.64529035  0.14340654    -0.79000
O566        O  0.14058175  0.54999562  0.17098399    -1.89500
Cd567      Cd  0.10406893  0.48888105  0.15175737     1.59900
O568        O  0.20529697  0.62171288  0.12784018    -0.78900
O569        O  0.11135661  0.44161132  0.17324096    -0.77600
C570        C  0.24416466  0.60051016  0.20593948     0.85000
C571        C  0.10120752  0.59058544  0.23196156     0.84600
O572        O  0.09806813  0.47047777  0.21037890    -0.76500
C573        C  0.04276376  0.51320844  0.13240162     0.85400
O574        O  0.21296326  0.55908709  0.21196669    -0.76600
C575        C  0.18451639  0.64385578  0.12518612     0.85600
C576        C  0.17735801  0.51076036  0.10868583     0.85900
O577        O  0.20790326  0.52994638  0.12653614    -0.79000
O578        O  0.30117501  0.41287780  0.28837512    -0.76500
C579        C  0.19519958  0.44394960  0.27563444     0.84500
O580        O  0.00746795  0.55583771  0.33451534    -0.77700
O581        O  0.18577013  0.47981643  0.36881649    -0.79100
O582        O  0.19229647  0.34832076  0.36955043    -0.78900
O583        O  0.24149042  0.35348621  0.30834802    -0.77600
Zn584      Zn  0.28141003  0.45748840  0.30053196     1.55700
O585        O  0.14510061  0.36876369  0.35321527    -0.79000
Cd586      Cd  0.24980148  0.38978684  0.34449717     1.59700
Cd587      Cd  0.29761900  0.50312915  0.35678891     1.59600
O588        O  0.31189813  0.41115604  0.36179863    -0.79000
O589        O  0.25341977  0.44792097  0.33551840    -1.89500
Cd590      Cd  0.18859760  0.43572348  0.33733250     1.59900
O591        O  0.00411546  0.48379425  0.37845283    -0.78900
O592        O  0.17036227  0.43937137  0.29717194    -0.77600
C593        C  0.35200278  0.55789104  0.30774943     0.85000
C594        C  0.26824598  0.37101778  0.28783101     0.84600
O595        O  0.23545940  0.44947996  0.27627275    -0.76500
C596        C  0.15168873  0.34219138  0.36753338     0.85400
O597        O  0.33266667  0.52056585  0.29406529    -0.76600
C598        C  0.00919423  0.44875182  0.37547173     0.85600
C599        C  0.21501541  0.50521229  0.38672579     0.85900
O600        O  0.25821483  0.51767483  0.38457650    -0.79000
N601        N  0.00809689  0.80080157  0.09083749    -0.01500
C602        C  0.03847040  0.84072774  0.10363821     0.01100
C603        C  0.07212761  0.87178362  0.08617594    -0.21800
C604        C  0.06493560  0.84879422  0.06193113    -0.22000
C605        C  0.02765327  0.80429108  0.06586823     0.01000
H606        H  0.10010380  0.90619494  0.09107508     0.14700
H607        H  0.08778166  0.86140819  0.04430086     0.14800
N608        N  0.23592304  0.85408463  0.07884698    -0.01500
C609        C  0.19261123  0.84568541  0.08567410     0.01100
C610        C  0.16995856  0.84524511  0.06365757    -0.21800
C611        C  0.20239711  0.85988464  0.04290281    -0.22000
C612        C  0.24359472  0.86794879  0.05302618     0.01000
H613        H  0.13554318  0.83988067  0.06341252     0.14700
H614        H  0.19823048  0.87029021  0.02371931     0.14800
N615        N  0.17736290  0.69087932  0.08975752    -0.01500
C616        C  0.18703127  0.98951249  0.09223739     0.01100
C617        C  0.18680056  0.96030925  0.07184350    -0.21800
C618        C  0.17296208  0.97127194  0.04977401    -0.22000
C619        C  0.16340460  0.67728646  0.06420976     0.01000
H620        H  0.19004514  0.93044242  0.07381774     0.14700
H621        H  0.16295355  0.95124350  0.03125299     0.14800
C622        C  0.24403593  0.81793565  0.08596963     0.82200
N623        N  0.20712046  0.77367614  0.08930522    -0.76100
C624        C  0.21408543  0.73835736  0.09398102     0.84600
N625        N  0.25875683  0.74762821  0.09507753    -0.76100
C626        C  0.29543387  0.79083305  0.09091686     0.84700
N627        N  0.28787812  0.82585673  0.08609034    -0.77800
N628        N  0.24793520  0.98893624  0.91528825    -0.01500
C629        C  0.28146937  0.98340525  0.92534690     0.01100
C630        C  0.30688475  0.63878499  0.90098305    -0.21800
C631        C  0.29250838  0.64828160  0.87870884    -0.22000
C632        C  0.25971032  0.65999311  0.88727103     0.01000
H633        H  0.33536636  0.63276319  0.90201298     0.14700
H634        H  0.30940990  0.65322230  0.85908161     0.14800
N635        N  0.16001575  0.83388882  0.92796427    -0.01500
C636        C  0.20012249  0.84145542  0.91436400     0.01100
C637        C  0.23303775  0.84620899  0.93158516    -0.21800
C638        C  0.21167740  0.83584746  0.95619946    -0.22000
C639        C  0.16620145  0.82482688  0.95314375     0.01000
H640        H  0.26610394  0.84878383  0.92612003     0.14700
H641        H  0.22548387  0.82943898  0.97335049     0.14800
C642        C  0.12138308  0.91224687  0.90821514     0.82200
N643        N  0.16435053  0.95219382  0.90864654    -0.76100
C644        C  0.19979876  0.95407097  0.92147335     0.84600
N645        N  0.19137128  0.91526759  0.93331173    -0.76100
C646        C  0.15388864  0.87324990  0.92714827     0.84700
N647        N  0.11716784  0.87140909  0.91528176    -0.77800
N648        N  0.08117465  0.91576503  0.90323271    -0.01500
C649        C  0.08331962  0.95417874  0.91521916     0.01100
C650        C  0.08700540  0.98462678  0.89667006    -0.21800
C651        C  0.07959735  0.96172722  0.87266382    -0.22000
C652        C  0.07240045  0.91816486  0.87720058     0.01000
H653        H  0.08940001  0.01769928  0.90054674     0.14700
H654        H  0.40726943  0.97515016  0.85765906     0.14800
O655        O  0.09612517  0.68436730  0.06088555    -0.76500
C656        C  0.02341504  0.76458754  0.04910022     0.84500
O657        O  0.29638905  0.90282118  0.01637106    -0.77700
O658        O  0.31035977  0.69015577  0.96206207    -0.79100
O659        O  0.14081128  0.77471924  0.98937419    -0.78900
O660        O  0.14154754  0.69330169  0.02441528    -0.77600
Zn661      Zn  0.03603072  0.67833405  0.04607424     1.55700
O662        O  0.08547013  0.77384374  0.96696843    -0.79000
Cd663      Cd  0.10795856  0.70517724  0.99576680     1.59700
Cd664      Cd  0.33991380  0.95218341  0.98864747     1.59600
O665        O  0.10591123  0.00478661  0.95314738    -0.79000
O666        O  0.04297231  0.68178603  0.00742146    -1.89500
Cd667      Cd  0.02863808  0.72683401  0.99186247     1.59900
O668        O  0.04642669  0.93319358  0.95900835    -0.78900
O669        O  0.02100098  0.76569299  0.02379182    -0.77600
C670        C  0.28812194  0.90649192  0.04126460     0.85000
C671        C  0.13299890  0.68755764  0.04945386     0.84600
O672        O  0.02773616  0.73331365  0.05994198    -0.76500
C673        C  0.12859729  0.79052359  0.97106104     0.85400
O674        O  0.31285589  0.94457658  0.05460159    -0.76600
C675        C  0.07976062  0.96349044  0.94432155     0.85600
C676        C  0.29446431  0.98907148  0.95319020     0.85900
O677        O  0.29906786  0.95693973  0.96188459    -0.79000
N678        N  0.29009080  0.91360864  0.74465650    -0.01500
C679        C  0.29498598  0.87774118  0.75069129     0.01100
C680        C  0.30485588  0.85915185  0.72788675    -0.21800
C681        C  0.30301244  0.88231535  0.70690294    -0.22000
C682        C  0.29079456  0.91341899  0.71753165     0.01000
H683        H  0.30921072  0.82959057  0.72638261     0.14700
H684        H  0.30180182  0.87133633  0.68617045     0.14800
N685        N  0.10438264  0.65713801  0.76769183    -0.01500
C686        C  0.11338053  0.95529336  0.75996853     0.01100
C687        C  0.11499973  0.93164491  0.78119932    -0.21800
C688        C  0.10291871  0.61553120  0.80213620    -0.22000
C689        C  0.11034204  0.65766715  0.79434997     0.01000
H690        H  0.11851449  0.90138781  0.78031577     0.14700
H691        H  0.10960680  0.60765492  0.82140936     0.14800
N692        N  0.02399983  0.73720371  0.74442177    -0.01500
C693        C  0.98502723  0.73712193  0.75365073     0.01100
C694        C  0.95858193  0.73498251  0.73302070    -0.21800
C695        C  0.98465598  0.73935728  0.71012777    -0.22000
C696        C  0.02596816  0.74395436  0.71781592     0.01000
H697        H  0.92567531  0.73397655  0.73464682     0.14700
H698        H  0.97758149  0.74633124  0.69070283     0.14800
C699        C  0.06429296  0.65954532  0.76231432     0.82200
N700        N  0.03050877  0.95355867  0.75910608    -0.76100
C701        C  0.31573263  0.95673699  0.75923502     0.84600
N702        N  0.32242691  0.66314904  0.74807396    -0.76100
C703        C  0.02534441  0.69727838  0.75141541     0.84700
N704        N  0.06624068  0.69964449  0.75650528    -0.77800
O705        O  0.27539382  0.81457823  0.77618581    -0.76500
C706        C  0.31262865  0.74681863  0.78392242     0.84500
O707        O  0.15105122  0.69841829  0.83292670    -0.77700
O708        O  0.29479548  0.72410702  0.85968178    -0.79100
O709        O  0.33901539  0.88820509  0.85560789    -0.78900
O710        O  0.27963067  0.87506909  0.79890011    -0.77600
Zn711      Zn  0.24511246  0.76407770  0.80054379     1.55700
O712        O  0.03189948  0.83941109  0.85867447    -0.79000
Cd713      Cd  0.27425049  0.85062239  0.83843185     1.59700
Cd714      Cd  0.20536209  0.74272551  0.85728032     1.59600
O715        O  0.22920553  0.85358778  0.86920957    -0.79000
O716        O  0.26037889  0.78649030  0.83553380    -1.89500
Cd717      Cd  0.31775940  0.78366707  0.83940244     1.59900
O718        O  0.19019199  0.78116788  0.88491973    -0.78900
O719        O  0.00127567  0.76874627  0.79843254    -0.77600
C720        C  0.14689853  0.69883236  0.80788879     0.85000
C721        C  0.28354878  0.85562480  0.77694854     0.84600
O722        O  0.26970152  0.72324218  0.79063809    -0.76500
C723        C  0.03427944  0.87853093  0.86206201     0.85400
O724        O  0.17839895  0.73012073  0.79334898    -0.76600
C725        C  0.20344338  0.82417662  0.88716850     0.85600
C726        C  0.25828279  0.69647301  0.87350259     0.85900
O727        O  0.22243197  0.70058415  0.87631467    -0.79000
N728        N  0.18325014  0.79982446  0.57598139    -0.01500
C729        C  0.18890387  0.84086469  0.58449047     0.01100
C730        C  0.18629754  0.86449251  0.56383874    -0.21800
C731        C  0.17344456  0.83456879  0.54215200    -0.22000
C732        C  0.16941661  0.79399586  0.55041516     0.01000
H733        H  0.18799272  0.89726032  0.56524503     0.14700
H734        H  0.16115499  0.83925322  0.52378979     0.14800
N735        N  0.01494804  0.86672774  0.58869801    -0.01500
C736        C  0.04833804  0.85945599  0.59691336     0.01100
C737        C  0.07604727  0.85856859  0.57564803    -0.21800
C738        C  0.06453798  0.87286026  0.55411004    -0.22000
C739        C  0.02902952  0.88012867  0.56299755     0.01000
H740        H  0.10497193  0.85325790  0.57655531     0.14700
H741        H  0.08338500  0.88188679  0.53499260     0.14800
N742        N  0.24099885  0.69840850  0.58936993    -0.01500
C743        C  0.20047789  0.66687525  0.60185841     0.01100
C744        C  0.16947911  0.96950061  0.58490216    -0.21800
C745        C  0.19344298  0.97704275  0.56081517    -0.22000
C746        C  0.23842837  0.68085023  0.56400538     0.01000
H747        H  0.13504975  0.94126935  0.58973527     0.14700
H748        H  0.18127915  0.95488167  0.54314301     0.14800
C749        C  0.22071561  0.79333373  0.58234252     0.82200
N750        N  0.21301329  0.75048426  0.58558347    -0.76100
C751        C  0.24873075  0.74435034  0.59123373     0.84600
N752        N  0.29227240  0.78166570  0.59367316    -0.76100
C753        C  0.30075698  0.82540999  0.59040875     0.84700
N754        N  0.26491402  0.83076356  0.58432979    -0.77800
O755        O  0.21337801  0.89230453  0.71557010    -0.76500
C756        C  0.11785519  0.94009777  0.73193208     0.84500
O757        O  0.07125984  0.77812506  0.67849673    -0.77700
O758        O  0.05660490  0.88371623  0.64375458    -0.79100
O759        O  0.22440918  0.99213806  0.64453967    -0.78900
O760        O  0.26093811  0.93150115  0.68113181    -0.77600
Zn761      Zn  0.15015505  0.87661798  0.70768056     1.55700
O762        O  0.15118125  0.97512100  0.64156325    -0.79000
Cd763      Cd  0.21192246  0.92874497  0.65602281     1.57300
Cd764      Cd  0.11844094  0.83123512  0.65438832     1.59600
O765        O  0.20922514  0.89692447  0.61939375    -0.79000
O766        O  0.14823886  0.89203253  0.67283589    -1.89500
Cd767      Cd  0.11266528  0.92487630  0.67010003     1.59900
O768        O  0.16518543  0.82266481  0.62982060    -0.78900
O769        O  0.10437026  0.94909078  0.71062212    -0.77600
C770        C  0.06917196  0.77829443  0.70386813     0.85000
C771        C  0.25369552  0.91410587  0.70420338     0.84600
O772        O  0.13564897  0.91481885  0.73074972    -0.76500
C773        C  0.19289574  0.99274788  0.63188200     0.85400
O774        O  0.10018310  0.81174233  0.71752940    -0.76600
C775        C  0.18926849  0.85413158  0.61284387     0.85600
C776        C  0.06017711  0.85853929  0.62463078     0.85900
O777        O  0.08197366  0.83752553  0.62693034    -0.79000
N778        N  0.20725559  0.88001839  0.42685826    -0.01500
C779        C  0.20014690  0.84015447  0.41355079     0.01100
C780        C  0.19797406  0.80872695  0.43104738    -0.21800
C781        C  0.20975214  0.83084958  0.45518780    -0.22000
C782        C  0.21857721  0.87519052  0.45174031     0.01000
H783        H  0.19621393  0.77625646  0.42582272     0.14700
H784        H  0.21777485  0.81819456  0.47225348     0.14800
N785        N  0.05247844  0.79030291  0.41614049    -0.01500
C786        C  0.04586895  0.78040933  0.38961018     0.01100
C787        C  0.05837020  0.74843057  0.38103706    -0.21800
C788        C  0.06810921  0.73420692  0.40329269    -0.22000
C789        C  0.06061642  0.75750229  0.42439051     0.01000
H790        H  0.38508039  0.72801537  0.35785311     0.14700
H791        H  0.07485693  0.70641264  0.40438817     0.14800
N792        N  0.11889473  0.95542165  0.40751475    -0.01500
C793        C  0.07986452  0.95206551  0.41982888     0.01100
C794        C  0.04614665  0.61784803  0.40339182    -0.21800
C795        C  0.06941996  0.62979000  0.37923592    -0.22000
C796        C  0.11331900  0.63644533  0.38253386     0.01000
H797        H  0.01313014  0.61550880  0.40861804     0.14700
H798        H  0.05832027  0.64006429  0.36241761     0.14800
C799        C  0.12401389  0.91631270  0.41225255     0.82200
N800        N  0.08453395  0.87322620  0.41337160    -0.76100
C801        C  0.08497177  0.83761469  0.42433644     0.84600
N802        N  0.12522371  0.84658176  0.43466046    -0.76100
C803        C  0.16653560  0.88461319  0.42757595     0.84700
N804        N  0.16635384  0.92123408  0.41704041    -0.77800
O805        O  0.30987959  0.68109788  0.55719801    -0.76500
C806        C  0.01908106  0.91017842  0.54794550     0.84500
O807        O  0.13563445  0.73950351  0.51468741    -0.77700
O808        O  0.02930142  0.93244952  0.45781322    -0.79100
O809        O  0.26805046  0.95614904  0.46478000    -0.78900
O810        O  0.27754984  0.68951287  0.52157747    -0.77600
Zn811      Zn  0.02716309  0.66856032  0.54504528     1.55700
O812        O  0.26433013  0.90227363  0.48961385    -0.79000
Cd813      Cd  0.31505500  0.68069336  0.48888042     1.59700
Cd814      Cd  0.08516562  0.69284073  0.48866334     1.59600
O815        O  0.01355841  0.72825659  0.46407843    -0.79000
O816        O  0.02200868  0.66009874  0.50680399    -1.89500
Cd817      Cd  0.00005464  0.93388337  0.49484522     1.59900
O818        O  0.08124550  0.72958714  0.45911080    -0.78900
O819        O  0.01236236  0.90077476  0.52317592    -0.77600
C820        C  0.13130586  0.74967465  0.53913611     0.85000
C821        C  0.27872676  0.68628798  0.54684699     0.84600
O822        O  0.02340685  0.94744947  0.55878496    -0.76500
C823        C  0.25046981  0.91343773  0.46990724     0.85400
O824        O  0.09276446  0.72634103  0.55275594    -0.76600
C825        C  0.05232933  0.73994949  0.45145850     0.85600
C826        C  0.07134326  0.95577124  0.44880054     0.85900
O827        O  0.10039543  0.64916359  0.46459533    -0.79000
N828        N  0.27445181  0.65500196  0.24631782    -0.01500
C829        C  0.25591711  0.67745920  0.26050603     0.01100
C830        C  0.21999887  0.67546125  0.24731227    -0.21800
C831        C  0.27686641  0.04650972  0.21294029    -0.22000
C832        C  0.27610166  0.00692497  0.22002763     0.01000
H833        H  0.19851581  0.68965175  0.25399557     0.14700
H834        H  0.26701507  0.05246492  0.19406993     0.14800
N835        N  0.13097445  0.75659389  0.24131310    -0.01500
C836        C  0.13364982  0.76134642  0.21448176     0.01100
C837        C  0.17474383  0.76568447  0.20384578    -0.21800
C838        C  0.19975914  0.76747765  0.22485973    -0.22000
C839        C  0.17263691  0.76293163  0.24772082     0.01000
H840        H  0.18866477  0.77478823  0.18360333     0.14700
H841        H  0.23514693  0.77422322  0.22363810     0.14800
N842        N  0.04150916  0.93951795  0.26635738    -0.01500
C843        C  0.08275179  0.95134904  0.25274166     0.01100
C844        C  0.11542240  0.95638382  0.27054708    -0.21800
C845        C  0.09239373  0.94085521  0.29464365    -0.22000
C846        C  0.04684424  0.92823226  0.29093309     0.01000
H847        H  0.14950861  0.96121737  0.26527287     0.14700
H848        H  0.10545785  0.93243587  0.31134249     0.14800
C849        C  0.00608230  0.67745966  0.25346973     0.82200
N850        N  0.04764848  0.71796936  0.24980867    -0.76100
C851        C  0.08859884  0.72034072  0.25304133     0.84600
N852        N  0.08771440  0.68160905  0.25917313    -0.76100
C853        C  0.03075935  0.97569213  0.26874509     0.84700
N854        N  0.99363700  0.97290738  0.25693266    -0.77800
O855        O  0.08774874  0.89457367  0.22673030    -0.76500
C856        C  0.11980952  0.79099078  0.20301117     0.84500
O857        O  0.24777867  0.95620403  0.18257964    -0.77700
O858        O  0.13221523  0.83070890  0.11800982    -0.79100
O859        O  0.05068471  0.89037309  0.14133410    -0.78900
O860        O  0.09456246  0.95309394  0.20422213    -0.77600
Zn861      Zn  0.13770934  0.88778464  0.20768372     1.55700
O862        O  0.03596333  0.81950520  0.14819324    -0.79000
Cd863      Cd  0.10790133  0.93042525  0.16523226     1.59700
Cd864      Cd  0.19799375  0.91496300  0.15530933     1.59600
O865        O  0.15264992  0.97999795  0.13656155    -0.79000
O866        O  0.13460758  0.89036647  0.17095575    -1.89500
Cd867      Cd  0.09962489  0.82777478  0.15474399     1.59900
O868        O  0.20169318  0.95465314  0.12570211    -0.78900
O869        O  0.10423965  0.78266301  0.17949559    -0.77600
C870        C  0.24063887  0.96407530  0.20698079     0.85000
C871        C  0.08584554  0.93123928  0.22612508     0.84600
O872        O  0.13140801  0.82864429  0.21583790    -0.76500
C873        C  0.03767087  0.84923464  0.13277725     0.85400
O874        O  0.20080668  0.94055027  0.21899134    -0.76600
C875        C  0.18188335  0.97653328  0.12028622     0.85600
C876        C  0.17551625  0.84583129  0.11343313     0.85900
O877        O  0.20472104  0.86588245  0.13189886    -0.79000
O878        O  0.30243253  0.74485173  0.28615872    -0.76500
C879        C  0.19006981  0.76721616  0.27485415     0.84500
O880        O  0.01104540  0.88780219  0.33114732    -0.77700
O881        O  0.18679786  0.81113308  0.36831667    -0.79100
O882        O  0.19433774  0.67917283  0.36801676    -0.78900
O883        O  0.24451880  0.68500959  0.30690416    -0.77600
Zn884      Zn  0.28011066  0.78792041  0.29830239     1.55700
O885        O  0.14657866  0.70038245  0.35342326    -0.79000
Cd886      Cd  0.25141358  0.72134880  0.34280503     1.59700
Cd887      Cd  0.29839071  0.83475417  0.35441024     1.59600
O888        O  0.31353270  0.74349243  0.36001191    -0.79000
O889        O  0.25374093  0.77889047  0.33373143    -1.89500
Cd890      Cd  0.18876170  0.76644807  0.33672672     1.59900
O891        O  0.00637722  0.81832480  0.37736381    -0.78900
O892        O  0.16719946  0.76569838  0.29675273    -0.77600
C893        C  0.34907618  0.88963892  0.30465925     0.85000
C894        C  0.27071527  0.70240824  0.28616833     0.84600
O895        O  0.23100887  0.77428520  0.27490068    -0.76500
C896        C  0.15371876  0.67344698  0.36697960     0.85400
O897        O  0.32878960  0.85236968  0.29088464    -0.76600
C898        C  0.00940485  0.78201542  0.37572037     0.85600
C899        C  0.21677948  0.83637650  0.38596100     0.85900
O900        O  0.25990362  0.84883913  0.38307522    -0.79000
N901        N  0.34247613  0.13299570  0.09101697    -0.01500
C902        C  0.37175013  0.17383445  0.10345854     0.01100
C903        C  0.40405201  0.20518202  0.08559621    -0.21800
C904        C  0.39801325  0.18160328  0.06165986    -0.22000
C905        C  0.36260705  0.13646930  0.06617967     0.01000
H906        H  0.43119316  0.24001215  0.09029525     0.14700
H907        H  0.42083236  0.19439980  0.04402912     0.14800
N908        N  0.56885977  0.18458864  0.07807483    -0.01500
C909        C  0.52594470  0.17587214  0.08608819     0.01100
C910        C  0.50266664  0.17797189  0.06512497    -0.21800
C911        C  0.53409767  0.19328093  0.04380642    -0.22000
C912        C  0.57538481  0.19933810  0.05255938     0.01000
H913        H  0.46866579  0.17383274  0.06612227     0.14700
H914        H  0.52937075  0.20517285  0.02529057     0.14800
N915        N  0.51450612  0.02155702  0.08516521    -0.01500
C916        C  0.51754024  0.32154576  0.09485393     0.01100
C917        C  0.51652484  0.29359325  0.07346601    -0.21800
C918        C  0.50101619  0.30542994  0.05256013    -0.22000
C919        C  0.49964004  0.00743857  0.05990691     0.01000
H920        H  0.52058238  0.26392724  0.07402495     0.14700
H921        H  0.49061812  0.28673504  0.03364475     0.14800
C922        C  0.57776288  0.14879071  0.08422568     0.82200
N923        N  0.54207161  0.10365779  0.08452427    -0.76100
C924        C  0.54984535  0.06930630  0.09005238     0.84600
N925        N  0.59443170  0.08029079  0.09435681    -0.76100
C926        C  0.63011105  0.12498246  0.09386693     0.84700
N927        N  0.62136762  0.15906697  0.08875680    -0.77800
N928        N  0.58476707  0.32065182  0.91523644    -0.01500
C929        C  0.61745799  0.31361026  0.92487513     0.01100
C930        C  0.64666305  0.98557654  0.90638451    -0.21800
C931        C  0.63327947  0.99291336  0.88312106    -0.22000
C932        C  0.59640802  0.99973288  0.88963146     0.01000
H933        H  0.67687060  0.98316277  0.90922663     0.14700
H934        H  0.65293998  0.99974066  0.86428452     0.14800
N935        N  0.49583588  0.16908093  0.92803316    -0.01500
C936        C  0.53520030  0.17737980  0.91325835     0.01100
C937        C  0.56922257  0.18162287  0.92946654    -0.21800
C938        C  0.54902062  0.16948849  0.95430848    -0.22000
C939        C  0.50333717  0.15858206  0.95245931     0.01000
H940        H  0.60209254  0.18455211  0.92296530     0.14700
H941        H  0.56373315  0.16211625  0.97063225     0.14800
C942        C  0.45789454  0.24919631  0.91162944     0.82200
N943        N  0.50140770  0.28829351  0.91145078    -0.76100
C944        C  0.53678572  0.28887973  0.92347750     0.84600
N945        N  0.52721436  0.25000125  0.93574430    -0.76100
C946        C  0.48947167  0.20843137  0.92920113     0.84700
N947        N  0.45284257  0.20769012  0.91795381    -0.77800
N948        N  0.41848284  0.25410016  0.90712282    -0.01500
C949        C  0.42234333  0.29319054  0.91922212     0.01100
C950        C  0.42677354  0.32412477  0.90077831    -0.21800
C951        C  0.41846587  0.30114470  0.87673927    -0.22000
C952        C  0.41002985  0.25707030  0.88115886     0.01000
H953        H  0.42949844  0.35732266  0.90480329     0.14700
H954        H  0.73953606  0.31051731  0.85849560     0.14800
O955        O  0.43255413  0.01552378  0.05812407    -0.76500
C956        C  0.35903615  0.09713198  0.04921264     0.84500
O957        O  0.62910471  0.23322625  0.01596431    -0.77700
O958        O  0.64332726  0.03050590  0.96657324    -0.79100
O959        O  0.47851483  0.10518154  0.98692789    -0.78900
O960        O  0.47516662  0.02177907  0.02074605    -0.77600
Zn961      Zn  0.37143986  0.01027383  0.04489876     1.55700
O962        O  0.42324244  0.10953364  0.96758725    -0.79000
Cd963      Cd  0.44172593  0.03569272  0.99345932     1.59700
Cd964      Cd  0.67543088  0.28274249  0.98892098     1.59600
O965        O  0.44192450  0.34360096  0.95715629    -0.79000
O966        O  0.37746364  0.01464072  0.00616701    -1.89500
Cd967      Cd  0.36543012  0.06178299  0.99155263     1.59900
O968        O  0.38545594  0.27050092  0.96284383    -0.78900
O969        O  0.35696119  0.09899612  0.02395037    -0.77600
C970        C  0.62009347  0.23724683  0.04071088     0.85000
C971        C  0.46824680  0.01719529  0.04587100     0.84600
O972        O  0.36352059  0.06560479  0.05968944    -0.76500
C973        C  0.46627741  0.12374432  0.97031410     0.85400
O974        O  0.64462854  0.27531457  0.05405989    -0.76600
C975        C  0.41790399  0.30194252  0.94829209     0.85600
C976        C  0.63084344  0.31928675  0.95259312     0.85900
O977        O  0.63793579  0.28849076  0.96075541    -0.79000
N978        N  0.62315199  0.24972215  0.74233469    -0.01500
C979        C  0.62384436  0.21140189  0.74838776     0.01100
C980        C  0.62958753  0.19016698  0.72541432    -0.21800
C981        C  0.62950954  0.21441109  0.70446978    -0.22000
C982        C  0.62214151  0.24875471  0.71526893     0.01000
H983        H  0.62994896  0.15834292  0.72382506     0.14700
H984        H  0.62594493  0.20251534  0.68382301     0.14800
N985        N  0.43323164  0.99087809  0.76772065    -0.01500
C986        C  0.42057569  0.28088246  0.75429541     0.01100
C987        C  0.41372369  0.24952249  0.77359202    -0.21800
C988        C  0.43416379  0.94536396  0.79898240    -0.22000
C989        C  0.44311843  0.98889340  0.79330150     0.01000
H990        H  0.40776075  0.21493340  0.76985634     0.14700
H991        H  0.44309931  0.93537411  0.81680795     0.14800
N992        N  0.36009096  0.07799452  0.74500767    -0.01500
C993        C  0.32203231  0.07954771  0.75445443     0.01100
C994        C  0.29641481  0.07923846  0.73388893    -0.21800
C995        C  0.32227134  0.08304754  0.71096346    -0.22000
C996        C  0.36275731  0.08565808  0.71846510     0.01000
H997        H  0.26466738  0.08048557  0.73558040     0.14700
H998        H  0.31606341  0.09144310  0.69170181     0.14800
C999        C  0.39512780  0.99860931  0.76684536     0.82200
N1000       N  0.35383201  0.30139581  0.77495448    -0.76100
C1001       C  0.65384105  0.29283255  0.75564402     0.84600
N1002       N  0.65551334  0.99601990  0.74717290    -0.76100
C1003       C  0.35976439  0.03706357  0.75185821     0.84700
N1004       N  0.39976492  0.03795792  0.75725776    -0.77800
O1005       O  0.60269263  0.14826723  0.77437012    -0.76500
C1006       C  0.64219645  0.08007567  0.78151505     0.84500
O1007       O  0.48470664  0.02831682  0.83224910    -0.77700
O1008       O  0.62729974  0.05949758  0.85893879    -0.79100
O1009       O  0.67174537  0.22327339  0.85407669    -0.78900
O1010       O  0.61198658  0.21073225  0.79707337    -0.77600
Zn1011     Zn  0.57470092  0.09826363  0.79917104     1.55700
O1012       O  0.36971987  0.17930382  0.86106386    -0.79000
Cd1013     Cd  0.60686177  0.18565865  0.83669404     1.59700
Cd1014     Cd  0.53780440  0.07673120  0.85657029     1.59600
O1015       O  0.56257214  0.18880134  0.86784929    -0.79000
O1016       O  0.59202677  0.12085143  0.83402859    -1.89500
Cd1017     Cd  0.64926492  0.11779810  0.83746057     1.59900
O1018       O  0.52203721  0.11620020  0.88347093    -0.78900
O1019       O  0.33816053  0.11049790  0.79952847    -0.77600
C1020       C  0.47876344  0.02987601  0.80756673     0.85000
C1021       C  0.61301323  0.19003153  0.77496931     0.84600
O1022       O  0.59903098  0.05769749  0.78784395    -0.76500
C1023       C  0.37170046  0.21801660  0.86589403     0.85400
O1024       O  0.50743615  0.06395855  0.79362658    -0.76600
C1025       C  0.53660656  0.15957313  0.88585491     0.85600
C1026       C  0.59248054  0.03359504  0.87439935     0.85900
O1027       O  0.55671557  0.03776299  0.87764108    -0.79000
N1028       N  0.51958225  0.13649458  0.57541184    -0.01500
C1029       C  0.52624034  0.17824198  0.58337475     0.01100
C1030       C  0.52621466  0.20222145  0.56207139    -0.21800
C1031       C  0.51339806  0.17187816  0.54057375    -0.22000
C1032       C  0.50701656  0.13072767  0.54956892     0.01000
H1033       H  0.52972104  0.23576753  0.56281806     0.14700
H1034       H  0.50279903  0.17698335  0.52172149     0.14800
N1035       N  0.35065821  0.19488842  0.58415013    -0.01500
C1036       C  0.38360677  0.18725335  0.59260710     0.01100
C1037       C  0.41291809  0.18843854  0.57173784    -0.21800
C1038       C  0.40180600  0.20322201  0.55015698    -0.22000
C1039       C  0.36523368  0.20913521  0.55868472     0.01000
H1040       H  0.44265098  0.18457023  0.57307301     0.14700
H1041       H  0.42178740  0.21387741  0.53143672     0.14800
N1042       N  0.57506248  0.03295138  0.58953793    -0.01500
C1043       C  0.53398652  0.00280736  0.60215113     0.01100
C1044       C  0.50359812  0.30319724  0.58338258    -0.21800
C1045       C  0.52815211  0.31129787  0.55947619    -0.22000
C1046       C  0.57233714  0.01355197  0.56468953     0.01000
H1047       H  0.46914456  0.27444082  0.58794604     0.14700
H1048       H  0.51663030  0.28917948  0.54175448     0.14800
C1049       C  0.55629787  0.12921403  0.58228501     0.82200
N1050       N  0.54842080  0.08601183  0.58439020    -0.76100
C1051       C  0.58375889  0.07933282  0.59018239     0.84600
N1052       N  0.62731988  0.11639062  0.59318152    -0.76100
C1053       C  0.63605122  0.16041353  0.59052429     0.84700
N1054       N  0.60045983  0.16631683  0.58486101    -0.77800
O1055       O  0.54712443  0.23562235  0.71496908    -0.76500
C1056       C  0.43960429  0.27470734  0.72775311     0.84500
O1057       O  0.41119645  0.11660608  0.67957498    -0.77700
O1058       O  0.39098848  0.21520708  0.63827667    -0.79100
O1059       O  0.55563118  0.33041310  0.64446033    -0.78900
O1060       O  0.59374531  0.26858033  0.67900760    -0.77600
Zn1061     Zn  0.48439758  0.22206076  0.70711283     1.55700
O1062       O  0.48256520  0.31257953  0.63942043    -0.79000
Cd1063     Cd  0.54545652  0.26726145  0.65403913     1.57300
Cd1064     Cd  0.45598427  0.16843161  0.65365261     1.59600
O1065       O  0.54346638  0.23561894  0.61733857    -0.79000
O1066       O  0.48212081  0.23047292  0.67081791    -1.89500
Cd1067     Cd  0.44296653  0.25850842  0.66586979     1.59900
O1068       O  0.50486841  0.16206171  0.62939058    -0.78900
O1069       O  0.42234788  0.27393871  0.70528146    -0.77600
C1070       C  0.40623351  0.12045079  0.70477448     0.85000
C1071       C  0.58666460  0.25325886  0.70263920     0.84600
O1072       O  0.47039856  0.26360859  0.72911323    -0.76500
C1073       C  0.52476241  0.32979435  0.63051844     0.85400
O1074       O  0.43366666  0.15736096  0.71777562    -0.76600
C1075       C  0.52641064  0.19276088  0.61162079     0.85600
C1076       C  0.39568616  0.18888999  0.62051542     0.85900
O1077       O  0.41818067  0.16910711  0.62448751    -0.79000
N1078       N  0.53859886  0.21605989  0.42806613    -0.01500
C1079       C  0.53058094  0.17598643  0.41483761     0.01100
C1080       C  0.52512852  0.14318508  0.43238349    -0.21800
C1081       C  0.53604540  0.16463667  0.45673910    -0.22000
C1082       C  0.54802078  0.21000548  0.45316626     0.01000
H1083       H  0.52189177  0.11003665  0.42722904     0.14700
H1084       H  0.54241750  0.15089005  0.47394184     0.14800
N1085       N  0.38631028  0.12649109  0.41472448    -0.01500
C1086       C  0.37617441  0.11361899  0.38872721     0.01100
C1087       C  0.38621573  0.07963815  0.38072090    -0.21800
C1088       C  0.39855626  0.06773180  0.40288064    -0.22000
C1089       C  0.39548702  0.09465995  0.42347600     0.01000
H1090       H  0.71523116  0.06007477  0.36001565     0.14700
H1091       H  0.40340604  0.03869062  0.40450332     0.14800
N1092       N  0.45319555  0.29138558  0.40354630    -0.01500
C1093       C  0.41459686  0.28787654  0.41665183     0.01100
C1094       C  0.38316792  0.95018042  0.40083488    -0.21800
C1095       C  0.40611287  0.95923597  0.37657326    -0.22000
C1096       C  0.45022891  0.96670625  0.38043602     0.01000
H1097       H  0.35032053  0.94852042  0.40550345     0.14700
H1098       H  0.39515344  0.96830539  0.35918946     0.14800
C1099       C  0.45861034  0.25235033  0.40790833     0.82200
N1100       N  0.41933468  0.20904205  0.40835633    -0.76100
C1101       C  0.41814678  0.17462544  0.42184055     0.84600
N1102       N  0.45671212  0.18493923  0.43478687    -0.76100
C1103       C  0.49885242  0.22214383  0.42784537     0.84700
N1104       N  0.50006794  0.25789322  0.41527466    -0.77800
O1105       O  0.64385504  0.01302009  0.55832481    -0.76500
C1106       C  0.35604329  0.24055890  0.54449632     0.84500
O1107       O  0.47315201  0.07729611  0.51334281    -0.77700
O1108       O  0.36471628  0.26772645  0.45507086    -0.79100
O1109       O  0.60055067  0.29003783  0.46571645    -0.78900
O1110       O  0.61071020  0.01913005  0.52245475    -0.77600
Zn1111     Zn  0.36473614  0.00535915  0.54344248     1.55700
O1112       O  0.60021371  0.23508567  0.48808145    -0.79000
Cd1113     Cd  0.64784702  0.00942900  0.49018757     1.59700
Cd1114     Cd  0.42293056  0.03114319  0.48692220     1.59600
O1115       O  0.35100375  0.06803801  0.46410566    -0.79000
O1116       O  0.36005308  0.99821515  0.50514461    -1.89500
Cd1117     Cd  0.33604964  0.26731393  0.49268509     1.59900
O1118       O  0.41810749  0.06841794  0.45800100    -0.78900
O1119       O  0.34851832  0.23223143  0.51972456    -0.77600
C1120       C  0.46885972  0.08671609  0.53796680     0.85000
C1121       C  0.61235386  0.01747065  0.54776631     0.84600
O1122       O  0.36117298  0.27761521  0.55622104    -0.76500
C1123       C  0.58367164  0.24725943  0.47018707     0.85400
O1124       O  0.43040818  0.06284537  0.55158678    -0.76600
C1125       C  0.38912992  0.07914868  0.45090795     0.85600
C1126       C  0.40672113  0.29069843  0.44591134     0.85900
O1127       O  0.43780140  0.98773577  0.46193846    -0.79000
N1128       N  0.62113628  0.00855815  0.24537947    -0.01500
C1129       C  0.61759996  0.04554423  0.25377283     0.01100
C1130       C  0.61791223  0.06999790  0.23257304    -0.21800
C1131       C  0.62148140  0.37808436  0.20541112    -0.22000
C1132       C  0.61998415  0.34006014  0.21597289     0.01000
H1133       H  0.61734786  0.10188165  0.23340717     0.14700
H1134       H  0.61472326  0.38139757  0.18507208     0.14800
N1135       N  0.45032522  0.08203168  0.24750302    -0.01500
C1136       C  0.45042840  0.08118715  0.22037126     0.01100
C1137       C  0.48235518  0.06991673  0.20960641    -0.21800
C1138       C  0.50604706  0.06874999  0.23047412    -0.22000
C1139       C  0.48704613  0.07814600  0.25336198     0.01000
H1140       H  0.49347581  0.07133551  0.18880700     0.14700
H1141       H  0.53642823  0.06545795  0.22880810     0.14800
N1142       N  0.37790490  0.27013633  0.26694285    -0.01500
C1143       C  0.42106060  0.28191381  0.25620553     0.01100
C1144       C  0.45078310  0.28874961  0.27640021    -0.21800
C1145       C  0.42427947  0.27512280  0.29956910    -0.22000
C1146       C  0.37957787  0.26150659  0.29285746     0.01000
H1147       H  0.48573446  0.29446891  0.27377052     0.14700
H1148       H  0.43480848  0.26854918  0.31799113     0.14800
C1149       C  0.32707496  0.01034881  0.25254599     0.82200
N1150       N  0.36797928  0.05213878  0.25254245    -0.76100
C1151       C  0.40667951  0.05595192  0.26218257     0.84600
N1152       N  0.40084067  0.01958815  0.27553644    -0.76100
C1153       C  0.36585071  0.30490243  0.26503149     0.84700
N1154       N  0.32422421  0.29587357  0.25621374    -0.77800
O1155       O  0.44463429  0.23687348  0.23155608    -0.76500
C1156       C  0.44798228  0.11697921  0.20672180     0.84500
O1157       O  0.58818147  0.28933676  0.17890763    -0.77700
O1158       O  0.46748755  0.15800933  0.12023431    -0.79100
O1159       O  0.39304620  0.22334385  0.14160959    -0.78900
O1160       O  0.42840525  0.28004309  0.20720564    -0.77600
Zn1161     Zn  0.48330123  0.21937099  0.20914413     1.55700
O1162       O  0.37338506  0.15021054  0.14692284    -0.79000
Cd1163     Cd  0.44632796  0.26084571  0.16823106     1.59700
Cd1164     Cd  0.53494049  0.24529400  0.15462474     1.59600
O1165       O  0.49134209  0.31363517  0.14114120    -0.79000
O1166       O  0.47334321  0.22063727  0.17305374    -1.89500
Cd1167     Cd  0.43554768  0.15760330  0.15700391     1.59900
O1168       O  0.53369935  0.28301370  0.12538223    -0.78900
O1169       O  0.43232595  0.10958235  0.18321969    -0.77600
C1170       C  0.58546928  0.29542823  0.20401738     0.85000
C1171       C  0.42986581  0.26460772  0.22987668     0.84600
O1172       O  0.46734725  0.15675873  0.21817999    -0.76500
C1173       C  0.37584837  0.18169518  0.13268327     0.85400
O1174       O  0.54912764  0.26871236  0.21810449    -0.76600
C1175       C  0.51584129  0.30768861  0.12245692     0.85600
C1176       C  0.51067122  0.17466321  0.11433545     0.85900
O1177       O  0.54127655  0.19588728  0.13190196    -0.79000
O1178       O  0.64331977  0.10521950  0.28637912    -0.76500
C1179       C  0.51100974  0.09217041  0.27895597     0.84500
O1180       O  0.34113939  0.22054050  0.33241650    -0.77700
O1181       O  0.51786311  0.14604694  0.37023637    -0.79100
O1182       O  0.52910341  0.00770760  0.36126030    -0.78900
O1183       O  0.59288283  0.03449109  0.29995595    -0.77600
Zn1184     Zn  0.60607823  0.13214882  0.29998095     1.55700
O1185       O  0.48302517  0.03675854  0.35745787    -0.79000
Cd1186     Cd  0.58799164  0.05806069  0.33906527     1.59700
Cd1187     Cd  0.63005599  0.16857130  0.35747400     1.59600
O1188       O  0.64806640  0.07937192  0.35898139    -0.79000
O1189       O  0.58521152  0.11519277  0.33549720    -1.89500
Cd1190     Cd  0.52007251  0.10095743  0.33984310     1.59900
O1191       O  0.33472680  0.15098308  0.37867374    -0.78900
O1192       O  0.49123430  0.09311583  0.30151691    -0.77600
C1193       C  0.67594953  0.22854098  0.30795860     0.85000
C1194       C  0.61949369  0.06196329  0.28166617     0.84600
O1195       O  0.55370014  0.10470307  0.27705507    -0.76500
C1196       C  0.48993409  0.00545812  0.36554419     0.85400
O1197       O  0.64332437  0.19900515  0.29363060    -0.76600
C1198       C  0.33958661  0.11584126  0.37527520     0.85600
C1199       C  0.54785734  0.17202246  0.38761440     0.85900
O1200       O  0.59113210  0.18474847  0.38494105    -0.79000
N1201       N  0.34200898  0.46809557  0.09083603    -0.01500
C1202       C  0.37123971  0.50966058  0.10275727     0.01100
C1203       C  0.40331234  0.54032483  0.08452590    -0.21800
C1204       C  0.39688751  0.51584944  0.06087307    -0.22000
C1205       C  0.36143412  0.47088055  0.06581767     0.01000
H1206       H  0.43030965  0.57551081  0.08868829     0.14700
H1207       H  0.41923171  0.52813849  0.04303557     0.14800
N1208       N  0.56754682  0.51814393  0.07843430    -0.01500
C1209       C  0.52475534  0.51030167  0.08627135     0.01100
C1210       C  0.50150823  0.51151889  0.06500849    -0.21800
C1211       C  0.53287069  0.52575796  0.04367874    -0.22000
C1212       C  0.57422029  0.53229515  0.05268182     0.01000
H1213       H  0.46762283  0.50770737  0.06574137     0.14700
H1214       H  0.52817514  0.53708002  0.02494650     0.14800
N1215       N  0.50903959  0.35442395  0.08728178    -0.01500
C1216       C  0.51746244  0.65535553  0.09404418     0.01100
C1217       C  0.51798460  0.62744947  0.07305296    -0.21800
C1218       C  0.50457742  0.63964471  0.05139908    -0.22000
C1219       C  0.49454575  0.34102611  0.06187267     0.01000
H1220       H  0.52195824  0.59782936  0.07420628     0.14700
H1221       H  0.49529133  0.62084252  0.03246586     0.14800
C1222       C  0.57538302  0.48161491  0.08498712     0.82200
N1223       N  0.53855317  0.43705461  0.08673642    -0.76100
C1224       C  0.54522465  0.40187511  0.09215067     0.84600
N1225       N  0.58963856  0.41149668  0.09531777    -0.76100
C1226       C  0.62644343  0.45527388  0.09305232     0.84700
N1227       N  0.61905985  0.49024385  0.08770027    -0.77800
N1228       N  0.58397987  0.65689586  0.91400401    -0.01500
C1229       C  0.61828721  0.65295017  0.92429073     0.01100
C1230       C  0.64394292  0.30799775  0.90484563    -0.21800
C1231       C  0.63146373  0.31718846  0.88177392    -0.22000
C1232       C  0.59705366  0.32740082  0.88878068     0.01000
H1233       H  0.67189558  0.30183725  0.90725792     0.14700
H1234       H  0.64995228  0.32220358  0.86264242     0.14800
N1235       N  0.49429186  0.49829606  0.92621079    -0.01500
C1236       C  0.53317317  0.50252149  0.91265056     0.01100
C1237       C  0.56568581  0.50634808  0.92984701    -0.21800
C1238       C  0.54525413  0.49921459  0.95467209    -0.22000
C1239       C  0.50049032  0.49045310  0.95171153     0.01000
H1240       H  0.59776510  0.50682239  0.92444228     0.14700
H1241       H  0.55871153  0.49308283  0.97208450     0.14800
C1242       C  0.45715586  0.57962130  0.90847401     0.82200
N1243       N  0.50018030  0.61937800  0.90877287    -0.76100
C1244       C  0.53657303  0.62032299  0.91974264     0.84600
N1245       N  0.52972409  0.58048924  0.92928379    -0.76100
C1246       C  0.49074100  0.53905975  0.92430038     0.84700
N1247       N  0.45290019  0.53825214  0.91458134    -0.77800
N1248       N  0.41716020  0.58391825  0.90425245    -0.01500
C1249       C  0.42000173  0.62219788  0.91696704     0.01100
C1250       C  0.42246671  0.65306510  0.89913460    -0.21800
C1251       C  0.41489759  0.63125243  0.87480587    -0.22000
C1252       C  0.40797950  0.58755171  0.87847650     0.01000
H1253       H  0.42411942  0.68563435  0.90376172     0.14700
H1254       H  0.73726256  0.64122278  0.85809854     0.14800
O1255       O  0.42728179  0.34819289  0.05895032    -0.76500
C1256       C  0.35662056  0.43103623  0.04874180     0.84500
O1257       O  0.62675061  0.56745955  0.01558551    -0.77700
O1258       O  0.64438138  0.35817071  0.96484657    -0.79100
O1259       O  0.47419264  0.44272532  0.98909789    -0.78900
O1260       O  0.47393911  0.35960335  0.02270542    -0.77600
Zn1261     Zn  0.36774857  0.34373842  0.04433976     1.55700
O1262       O  0.41961787  0.44163483  0.96594784    -0.79000
Cd1263     Cd  0.44125337  0.37296645  0.99451678     1.59700
Cd1264     Cd  0.67280753  0.61715286  0.98815164     1.59600
O1265       O  0.44219436  0.67292529  0.95478997    -0.79000
O1266       O  0.37610834  0.34909895  0.00586398    -1.89500
Cd1267     Cd  0.36252118  0.39495851  0.99083069     1.59900
O1268       O  0.38689133  0.59982886  0.96129157    -0.78900
O1269       O  0.35516235  0.43317786  0.02340117    -0.77600
C1270       C  0.61870120  0.57070606  0.04060792     0.85000
C1271       C  0.46451950  0.35214729  0.04752626     0.84600
O1272       O  0.35973327  0.39875383  0.05927338    -0.76500
C1273       C  0.46260455  0.45798885  0.97020985     0.85400
O1274       O  0.64381461  0.60848469  0.05408219    -0.76600
C1275       C  0.41807938  0.63111247  0.94619665     0.85600
C1276       C  0.62914451  0.65600024  0.95235906     0.85900
O1277       O  0.63556549  0.62438145  0.96001539    -0.79000
N1278       N  0.62229113  0.57894342  0.74261790    -0.01500
C1279       C  0.62377498  0.54086108  0.74825339     0.01100
C1280       C  0.63088059  0.52106102  0.72505841    -0.21800
C1281       C  0.63135182  0.54609473  0.70440152    -0.22000
C1282       C  0.62306916  0.57962496  0.71550361     0.01000
H1283       H  0.63221305  0.48986192  0.72301039     0.14700
H1284       H  0.62910620  0.53536423  0.68357638     0.14800
N1285       N  0.43294397  0.32292270  0.76628523    -0.01500
C1286       C  0.42954721  0.61678441  0.75607573     0.01100
C1287       C  0.42567596  0.58819409  0.77623692    -0.21800
C1288       C  0.42872821  0.27401967  0.79709232    -0.22000
C1289       C  0.44296895  0.31915629  0.79151655     0.01000
H1290       H  0.42363302  0.55506711  0.77367856     0.14700
H1291       H  0.43614125  0.26197122  0.81465086     0.14800
N1292       N  0.36385955  0.41290249  0.74177266    -0.01500
C1293       C  0.32625498  0.41516019  0.75122504     0.01100
C1294       C  0.29964411  0.41300956  0.73071107    -0.21800
C1295       C  0.32487407  0.41578273  0.70768230    -0.22000
C1296       C  0.36577320  0.41922522  0.71516452     0.01000
H1297       H  0.26704736  0.41262413  0.73244235     0.14700
H1298       H  0.31783469  0.42274282  0.68824222     0.14800
C1299       C  0.39736732  0.33470404  0.76695399     0.82200
N1300       N  0.35510581  0.62810852  0.76898254    -0.76100
C1301       C  0.64996080  0.62145673  0.75729994     0.84600
N1302       N  0.65892298  0.33265620  0.74715468    -0.76100
C1303       C  0.36326148  0.37222178  0.74926084     0.84700
N1304       N  0.40300249  0.37264359  0.75478267    -0.77800
O1305       O  0.60640324  0.47816096  0.77384343    -0.76500
C1306       C  0.65042340  0.41489721  0.78257767     0.84500
O1307       O  0.48523392  0.35740864  0.83054170    -0.77700
O1308       O  0.63067790  0.38948543  0.85947073    -0.79100
O1309       O  0.67126120  0.55320049  0.85344460    -0.78900
O1310       O  0.61035551  0.53825900  0.79680730    -0.77600
Zn1311     Zn  0.57962295  0.42733766  0.79833667     1.55700
O1312       O  0.36815140  0.50976789  0.85856880    -0.79000
Cd1313     Cd  0.60643204  0.51355803  0.83626024     1.59700
Cd1314     Cd  0.53897131  0.40425254  0.85514114     1.59600
O1315       O  0.56126079  0.51533665  0.86733753    -0.79000
O1316       O  0.59381958  0.44947816  0.83354191    -1.89500
Cd1317     Cd  0.65202506  0.44851864  0.83856717     1.59900
O1318       O  0.52286224  0.44259758  0.88264995    -0.78900
O1319       O  0.34099551  0.44524486  0.79640843    -0.77600
C1320       C  0.48148944  0.35800983  0.80546642     0.85000
C1321       C  0.61366797  0.51893465  0.77465367     0.84600
O1322       O  0.60748449  0.38957394  0.78864567    -0.76500
C1323       C  0.37031759  0.54862955  0.86268497     0.85400
O1324       O  0.51341190  0.38916701  0.79107316    -0.76600
C1325       C  0.53585732  0.48557272  0.88520771     0.85600
C1326       C  0.59444697  0.36198462  0.87358553     0.85900
O1327       O  0.55780739  0.36477292  0.87553946    -0.79000
N1328       N  0.52184111  0.47127276  0.57455667    -0.01500
C1329       C  0.52885161  0.51334595  0.58212860     0.01100
C1330       C  0.52789065  0.53638260  0.56064896    -0.21800
C1331       C  0.51459385  0.50536068  0.53945840    -0.22000
C1332       C  0.50886335  0.46464234  0.54872287     0.01000
H1333       H  0.53161979  0.56995796  0.56104110     0.14700
H1334       H  0.50359312  0.50985084  0.52057753     0.14800
N1335       N  0.35167168  0.53180677  0.58477425    -0.01500
C1336       C  0.38609481  0.52585968  0.59261811     0.01100
C1337       C  0.41487725  0.52747093  0.57129690    -0.21800
C1338       C  0.40188045  0.54093388  0.55000367    -0.22000
C1339       C  0.36473359  0.54549438  0.55910548     0.01000
H1340       H  0.44559633  0.52502873  0.57209655     0.14700
H1341       H  0.42097004  0.55172918  0.53102463     0.14800
N1342       N  0.57501802  0.36626940  0.58912017    -0.01500
C1343       C  0.53373502  0.33562788  0.60135248     0.01100
C1344       C  0.50595845  0.63632289  0.58643230    -0.21800
C1345       C  0.52853894  0.64471919  0.56186256    -0.22000
C1346       C  0.57267105  0.34794984  0.56400911     0.01000
H1347       H  0.47219644  0.60750578  0.59188037     0.14700
H1348       H  0.51599828  0.62240132  0.54427750     0.14800
C1349       C  0.55795267  0.46343890  0.58196578     0.82200
N1350       N  0.54936452  0.42007602  0.58443366    -0.76100
C1351       C  0.58421871  0.41281175  0.59043002     0.84600
N1352       N  0.62809977  0.44951247  0.59337910    -0.76100
C1353       C  0.63749107  0.49373873  0.59061854     0.84700
N1354       N  0.60229324  0.50015748  0.58471583    -0.77800
O1355       O  0.54864022  0.56702116  0.71416120    -0.76500
C1356       C  0.44522247  0.60902742  0.72884587     0.84500
O1357       O  0.41372168  0.45177699  0.67643705    -0.77700
O1358       O  0.39545885  0.55394114  0.63839393    -0.79100
O1359       O  0.55952413  0.66621609  0.64681648    -0.78900
O1360       O  0.59668968  0.60125992  0.67892465    -0.77600
Zn1361     Zn  0.48723337  0.55499469  0.70588130     1.55700
O1362       O  0.48777206  0.65230294  0.64237856    -0.79000
Cd1363     Cd  0.54967716  0.60215538  0.65358904     1.57300
Cd1364     Cd  0.45935733  0.50498239  0.65196316     1.59600
O1365       O  0.54731871  0.57161382  0.61608719    -0.79000
O1366       O  0.48599666  0.56615511  0.67011110    -1.89500
Cd1367     Cd  0.44720924  0.59542773  0.66678547     1.59900
O1368       O  0.50802758  0.49810262  0.62810616    -0.78900
O1369       O  0.42793666  0.61047484  0.70685496    -0.77600
C1370       C  0.40878216  0.45444168  0.70165888     0.85000
C1371       C  0.58854816  0.58492916  0.70237435     0.84600
O1372       O  0.47378813  0.59497607  0.72913911    -0.76500
C1373       C  0.52920219  0.66671079  0.63292175     0.85400
O1374       O  0.43629231  0.49050290  0.71516586    -0.76600
C1375       C  0.52967919  0.52861807  0.61030930     0.85600
C1376       C  0.39942251  0.52765247  0.62023653     0.85900
O1377       O  0.42204900  0.50774456  0.62344580    -0.79000
N1378       N  0.53658231  0.54690498  0.43013944    -0.01500
C1379       C  0.52871129  0.50712683  0.41663376     0.01100
C1380       C  0.52538880  0.47484785  0.43386067    -0.21800
C1381       C  0.53643846  0.49616159  0.45827821    -0.22000
C1382       C  0.54659527  0.54106060  0.45509251     0.01000
H1383       H  0.52294655  0.44214417  0.42839911     0.14700
H1384       H  0.54388399  0.48279305  0.47524180     0.14800
N1385       N  0.38803581  0.45834507  0.41302024    -0.01500
C1386       C  0.37920037  0.44675088  0.38680080     0.01100
C1387       C  0.38947799  0.41297208  0.37866291    -0.21800
C1388       C  0.40115840  0.40039770  0.40089093    -0.22000
C1389       C  0.39718032  0.42650848  0.42166960     0.01000
H1390       H  0.70247479  0.38527622  0.35775021     0.14700
H1391       H  0.40671686  0.37183572  0.40234008     0.14800
N1392       N  0.45360989  0.62380360  0.40503032    -0.01500
C1393       C  0.41412757  0.61950286  0.41741328     0.01100
C1394       C  0.38270700  0.28424151  0.39915041    -0.21800
C1395       C  0.40439081  0.29191729  0.37455592    -0.22000
C1396       C  0.44897263  0.30017240  0.37784471     0.01000
H1397       H  0.34971359  0.28210673  0.40411342     0.14700
H1398       H  0.39245649  0.30013983  0.35725917     0.14800
C1399       C  0.45879156  0.58461033  0.40918202     0.82200
N1400       N  0.41983526  0.54109460  0.40822818    -0.76100
C1401       C  0.41780241  0.50611290  0.42158525     0.84600
N1402       N  0.45484105  0.51632614  0.43602920    -0.76100
C1403       C  0.49737971  0.55367371  0.42999403     0.84700
N1404       N  0.49954271  0.58995172  0.41756910    -0.77800
O1405       O  0.64473871  0.34891632  0.55757851    -0.76500
C1406       C  0.35397034  0.57573497  0.54499731     0.84500
O1407       O  0.47517991  0.41110709  0.51238244    -0.77700
O1408       O  0.36297826  0.60062704  0.45533672    -0.79100
O1409       O  0.59835161  0.62153296  0.46720068    -0.78900
O1410       O  0.61137080  0.35517973  0.52177592    -0.77600
Zn1411     Zn  0.36732249  0.33811145  0.54264377     1.55700
O1412       O  0.59803076  0.56736466  0.49040269    -0.79000
Cd1413     Cd  0.64891858  0.34673095  0.48934508     1.59700
Cd1414     Cd  0.42496509  0.36437869  0.48588261     1.59600
O1415       O  0.35365011  0.40160388  0.46278724    -0.79000
O1416       O  0.36207637  0.33185543  0.50430298    -1.89500
Cd1417     Cd  0.33418511  0.60119003  0.49286246     1.59900
O1418       O  0.41993687  0.40053410  0.45638676    -0.78900
O1419       O  0.34705773  0.56730627  0.52019954    -0.77600
C1420       C  0.47115322  0.42010456  0.53714969     0.85000
C1421       C  0.61299708  0.35302234  0.54705837     0.84600
O1422       O  0.35796136  0.61236554  0.55662983    -0.76500
C1423       C  0.58149445  0.57887246  0.47217709     0.85400
O1424       O  0.43302961  0.39553823  0.55090210    -0.76600
C1425       C  0.39109902  0.41134646  0.44920569     0.85600
C1426       C  0.40524938  0.62320082  0.44651265     0.85900
O1427       O  0.43928741  0.32090364  0.46053814    -0.79000
N1428       N  0.62473854  0.34613624  0.24279367    -0.01500
C1429       C  0.62000153  0.38319741  0.24905306     0.01100
C1430       C  0.62057726  0.40499753  0.22647876    -0.21800
C1431       C  0.61765822  0.71494488  0.20776230    -0.22000
C1432       C  0.61854437  0.67690696  0.21629786     0.01000
H1433       H  0.61753939  0.43535590  0.22550106     0.14700
H1434       H  0.60811948  0.71904053  0.18830764     0.14800
N1435       N  0.44114487  0.41699864  0.24692668    -0.01500
C1436       C  0.44156929  0.41573591  0.21977617     0.01100
C1437       C  0.47504309  0.40628538  0.20933719    -0.21800
C1438       C  0.50108370  0.40972633  0.23014611    -0.22000
C1439       C  0.48092752  0.41844483  0.25276473     0.01000
H1440       H  0.48616606  0.40751869  0.18854050     0.14700
H1441       H  0.53344546  0.40970749  0.22860572     0.14800
N1442       N  0.38325037  0.60736253  0.26867014    -0.01500
C1443       C  0.42589335  0.62280651  0.25611701     0.01100
C1444       C  0.45865958  0.63224819  0.27501240    -0.21800
C1445       C  0.43475780  0.61618875  0.29886985    -0.22000
C1446       C  0.38851222  0.59893055  0.29399981     0.01000
H1447       H  0.49427125  0.64056697  0.27082182     0.14700
H1448       H  0.44835123  0.60996742  0.31617200     0.14800
C1449       C  0.31892402  0.33275043  0.25233881     0.82200
N1450       N  0.35699352  0.37664960  0.25236537    -0.76100
C1451       C  0.39842941  0.38440427  0.26060340     0.84600
N1452       N  0.39852534  0.34891464  0.27158333    -0.76100
C1453       C  0.36655449  0.63880919  0.26816702     0.84700
N1454       N  0.32647861  0.62761387  0.25618988    -0.77800
O1455       O  0.44646572  0.57581604  0.23131934    -0.76500
C1456       C  0.44149472  0.45269403  0.20618762     0.84500
O1457       O  0.58647324  0.62750623  0.17862687    -0.77700
O1458       O  0.46594009  0.49455948  0.11997155    -0.79100
O1459       O  0.39201051  0.56109859  0.14044208    -0.78900
O1460       O  0.43003077  0.61894828  0.20701045    -0.77600
Zn1461     Zn  0.48261529  0.55612362  0.20866598     1.55700
O1462       O  0.37123471  0.48819302  0.14694471    -0.79000
Cd1463     Cd  0.44537716  0.59821499  0.16759153     1.59700
Cd1464     Cd  0.53339774  0.58105259  0.15482453     1.59600
O1465       O  0.49126802  0.64993968  0.14025870    -0.79000
O1466       O  0.47172195  0.55752809  0.17275294    -1.89500
Cd1467     Cd  0.43310332  0.49488194  0.15641191     1.59900
O1468       O  0.53208568  0.61726673  0.12526339    -0.78900
O1469       O  0.42641450  0.44598485  0.18262869    -0.77600
C1470       C  0.58459761  0.63229104  0.20388275     0.85000
C1471       C  0.43257999  0.60421700  0.22972418     0.84600
O1472       O  0.46286949  0.49251950  0.21755554    -0.76500
C1473       C  0.37457445  0.51912018  0.13196514     0.85400
O1474       O  0.54923129  0.60384053  0.21802767    -0.76600
C1475       C  0.51511204  0.64246734  0.12183439     0.85600
C1476       C  0.50913805  0.51017716  0.11444237     0.85900
O1477       O  0.53950438  0.53123546  0.13219265    -0.79000
O1478       O  0.63550311  0.44372532  0.27989726    -0.76500
C1479       C  0.50434607  0.43225712  0.27857143     0.84500
O1480       O  0.34156880  0.55930841  0.33247105    -0.77700
O1481       O  0.51344868  0.47877587  0.37155724    -0.79100
O1482       O  0.52605434  0.34170659  0.35636459    -0.78900
O1483       O  0.59126206  0.37234965  0.29475638    -0.77600
Zn1484     Zn  0.60062238  0.47067804  0.29808071     1.55700
O1485       O  0.47963049  0.37112707  0.35605578    -0.79000
Cd1486     Cd  0.58405442  0.39347223  0.33427716     1.59700
Cd1487     Cd  0.62515773  0.50169716  0.35643393     1.59600
O1488       O  0.64379191  0.41324131  0.35407677    -0.79000
O1489       O  0.58034009  0.45041882  0.33313421    -1.89500
Cd1490     Cd  0.51493456  0.43594875  0.33917845     1.59900
O1491       O  0.33985607  0.48519048  0.37539685    -0.78900
O1492       O  0.48382479  0.42933648  0.30148126    -0.77600
C1493       C  0.67225384  0.56511249  0.30888056     0.85000
C1494       C  0.61653872  0.40024354  0.27625908     0.84600
O1495       O  0.54752545  0.44717731  0.27645212    -0.76500
C1496       C  0.48732915  0.33948987  0.36256315     0.85400
O1497       O  0.63864854  0.53797321  0.29438316    -0.76600
C1498       C  0.34201185  0.44835284  0.37376811     0.85600
C1499       C  0.54421963  0.50371119  0.38882909     0.85900
O1500       O  0.58732813  0.51647227  0.38520885    -0.79000
N1501       N  0.34214719  0.79960922  0.08880768    -0.01500
C1502       C  0.37312684  0.84030488  0.10079506     0.01100
C1503       C  0.40628822  0.86996093  0.08264676    -0.21800
C1504       C  0.39816349  0.84548661  0.05887445    -0.22000
C1505       C  0.36073500  0.80135976  0.06362718     0.01000
H1506       H  0.43498519  0.90425746  0.08692933     0.14700
H1507       H  0.42086209  0.85677275  0.04112522     0.14800
N1508       N  0.56991203  0.85290904  0.07902224    -0.01500
C1509       C  0.52662715  0.84396616  0.08649978     0.01100
C1510       C  0.50313484  0.84373087  0.06495689    -0.21800
C1511       C  0.53497783  0.85904256  0.04387135    -0.22000
C1512       C  0.57673947  0.86747064  0.05336173     0.01000
H1513       H  0.46841874  0.83773787  0.06529579     0.14700
H1514       H  0.53000804  0.86961841  0.02495955     0.14800
N1515       N  0.50999332  0.68840984  0.08573153    -0.01500
C1516       C  0.52339903  0.98929410  0.09319764     0.01100
C1517       C  0.52204776  0.96060934  0.07215935    -0.21800
C1518       C  0.50616194  0.97164859  0.05102903    -0.22000
C1519       C  0.49753605  0.67518176  0.06003668     0.01000
H1520       H  0.52565077  0.93075969  0.07320762     0.14700
H1521       H  0.49512664  0.95201709  0.03242696     0.14800
C1522       C  0.57720340  0.81577799  0.08500607     0.82200
N1523       N  0.54020487  0.77117132  0.08572734    -0.76100
C1524       C  0.54630942  0.73560780  0.09097419     0.84600
N1525       N  0.59037838  0.74474557  0.09466722    -0.76100
C1526       C  0.62735837  0.78854073  0.09336849     0.84700
N1527       N  0.62052206  0.82402317  0.08844532    -0.77800
N1528       N  0.58297564  0.99150611  0.91591099    -0.01500
C1529       C  0.61749959  0.98766712  0.92601697     0.01100
C1530       C  0.64882251  0.65304104  0.90489114    -0.21800
C1531       C  0.63654727  0.66190551  0.88171219    -0.22000
C1532       C  0.59878935  0.66736097  0.88807765     0.01000
H1533       H  0.67916695  0.65122477  0.90802234     0.14700
H1534       H  0.65737585  0.67062420  0.86323513     0.14800
N1535       N  0.49608053  0.83562429  0.92724914    -0.01500
C1536       C  0.53576818  0.84338675  0.91307798     0.01100
C1537       C  0.56872927  0.84668884  0.92978997    -0.21800
C1538       C  0.54767691  0.83519948  0.95446700    -0.22000
C1539       C  0.50233875  0.82504484  0.95198293     0.01000
H1540       H  0.60142413  0.84883305  0.92378540     0.14700
H1541       H  0.56144179  0.82739575  0.97109120     0.14800
C1542       C  0.45623277  0.91479642  0.91119330     0.82200
N1543       N  0.49899009  0.95493722  0.91165464    -0.76100
C1544       C  0.53542555  0.95637543  0.92297170     0.84600
N1545       N  0.52814755  0.91701631  0.93353596    -0.76100
C1546       C  0.49019282  0.87520907  0.92757984     0.84700
N1547       N  0.45267378  0.87375057  0.91704336    -0.77800
N1548       N  0.41583432  0.91784369  0.90611009    -0.01500
C1549       C  0.41756473  0.95597813  0.91810082     0.01100
C1550       C  0.42185462  0.98682338  0.89963903    -0.21800
C1551       C  0.41513134  0.96431322  0.87553964    -0.22000
C1552       C  0.40761610  0.92063359  0.88006507     0.01000
H1553       H  0.42401235  0.01977401  0.90359953     0.14700
H1554       H  0.74213145  0.98018346  0.85835693     0.14800
O1555       O  0.42951684  0.68071202  0.05689713    -0.76500
C1556       C  0.35595434  0.76093188  0.04698952     0.84500
O1557       O  0.62926899  0.90396440  0.01660241    -0.77700
O1558       O  0.64301455  0.69440718  0.96519611    -0.79100
O1559       O  0.47654594  0.77233129  0.98684159    -0.78900
O1560       O  0.47514044  0.68990137  0.02038526    -0.77600
Zn1561     Zn  0.36911311  0.67456226  0.04264362     1.55700
O1562       O  0.42149604  0.77387461  0.96548901    -0.79000
Cd1563     Cd  0.44241770  0.70265102  0.99220935     1.59700
Cd1564     Cd  0.67450759  0.95386854  0.98926948     1.59600
O1565       O  0.43974736  0.00544108  0.95628258    -0.79000
O1566       O  0.37770605  0.67954958  0.00413530    -1.89500
Cd1567     Cd  0.36374663  0.72516436  0.98927877     1.59900
O1568       O  0.37869160  0.93419776  0.96119474    -0.78900
O1569       O  0.35419672  0.76239673  0.02163418    -0.77600
C1570       C  0.62082135  0.90687969  0.04157993     0.85000
C1571       C  0.46651821  0.68425681  0.04536873     0.84600
O1572       O  0.36013264  0.72937434  0.05767874    -0.76500
C1573       C  0.46457026  0.78976939  0.96937969     0.85400
O1574       O  0.64519937  0.94478659  0.05515439    -0.76600
C1575       C  0.41308266  0.96455828  0.94709415     0.85600
C1576       C  0.62944719  0.99185184  0.95395804     0.85900
O1577       O  0.63654647  0.96070148  0.96161971    -0.79000
N1578       N  0.62204822  0.91355251  0.74041601    -0.01500
C1579       C  0.62186898  0.87497525  0.74688133     0.01100
C1580       C  0.62510962  0.85188165  0.72403375    -0.21800
C1581       C  0.62475372  0.87551106  0.70286019    -0.22000
C1582       C  0.61999379  0.91157579  0.71339875     0.01000
H1583       H  0.62427110  0.81946797  0.72271214     0.14700
H1584       H  0.61966345  0.86260812  0.68239514     0.14800
N1585       N  0.43660344  0.65805958  0.76670297    -0.01500
C1586       C  0.42542812  0.94999509  0.75603422     0.01100
C1587       C  0.42256231  0.92057443  0.77542411    -0.21800
C1588       C  0.43550682  0.61373127  0.79946802    -0.22000
C1589       C  0.44501982  0.65705370  0.79276200     0.01000
H1590       H  0.42075526  0.88768748  0.77189577     0.14700
H1591       H  0.44346047  0.60446795  0.81790531     0.14800
N1592       N  0.36340788  0.74600046  0.74496894    -0.01500
C1593       C  0.32562178  0.74705644  0.75537584     0.01100
C1594       C  0.29891413  0.74740818  0.73568869    -0.21800
C1595       C  0.32384964  0.75239875  0.71229450    -0.22000
C1596       C  0.36471004  0.75479343  0.71875334     0.01000
H1597       H  0.26681391  0.74788517  0.73831693     0.14700
H1598       H  0.31675301  0.76155726  0.69353042     0.14800
C1599       C  0.39825515  0.66492677  0.76428521     0.82200
N1600       N  0.35198482  0.96239168  0.77261799    -0.76100
C1601       C  0.65458712  0.95675552  0.75271513     0.84600
N1602       N  0.65416973  0.66111516  0.74908354    -0.76100
C1603       C  0.36328717  0.70463165  0.75050178     0.84700
N1604       N  0.40310734  0.70521216  0.75605328    -0.77800
O1605       O  0.60606444  0.81487544  0.77399465    -0.76500
C1606       C  0.64702340  0.74879852  0.78262099     0.84500
O1607       O  0.48600411  0.69734760  0.83162701    -0.77700
O1608       O  0.63011013  0.72912635  0.85890851    -0.79100
O1609       O  0.67381192  0.89274004  0.85357347    -0.78900
O1610       O  0.61200958  0.87680531  0.79581800    -0.77600
Zn1611     Zn  0.57856592  0.76569000  0.79910467     1.55700
O1612       O  0.36735575  0.84217195  0.86152657    -0.79000
Cd1613     Cd  0.60863850  0.85398482  0.83612876     1.59700
Cd1614     Cd  0.53970704  0.74462455  0.85587965     1.59600
O1615       O  0.56412399  0.85621633  0.86772891    -0.79000
O1616       O  0.59439435  0.78940229  0.83384753    -1.89500
Cd1617     Cd  0.65214071  0.78754973  0.83785078     1.59900
O1618       O  0.52368787  0.78329046  0.88292610    -0.78900
O1619       O  0.34155057  0.77626394  0.80050323    -0.77600
C1620       C  0.48136524  0.69795474  0.80666260     0.85000
C1621       C  0.61379849  0.85572937  0.77397032     0.84600
O1622       O  0.60404012  0.72558396  0.78923926    -0.76500
C1623       C  0.36968885  0.88122563  0.86484520     0.85400
O1624       O  0.51183305  0.73033883  0.79233372    -0.76600
C1625       C  0.53804372  0.82654467  0.88555703     0.85600
C1626       C  0.59471233  0.70175357  0.87353261     0.85900
O1627       O  0.55821965  0.70475903  0.87642213    -0.79000
N1628       N  0.51865491  0.80243924  0.57557387    -0.01500
C1629       C  0.52461164  0.84418672  0.58307336     0.01100
C1630       C  0.52535069  0.86779675  0.56139759    -0.21800
C1631       C  0.51408804  0.83750119  0.53999421    -0.22000
C1632       C  0.50719759  0.79642225  0.54942273     0.01000
H1633       H  0.52891132  0.90132084  0.56168288     0.14700
H1634       H  0.50450789  0.84248959  0.52077799     0.14800
N1635       N  0.34826521  0.86269705  0.58618904    -0.01500
C1636       C  0.38167342  0.85567241  0.59458205     0.01100
C1637       C  0.41150635  0.85762170  0.57378722    -0.21800
C1638       C  0.40018303  0.87226755  0.55230762    -0.22000
C1639       C  0.36309604  0.87732613  0.56081739     0.01000
H1640       H  0.44205468  0.85498141  0.57516852     0.14700
H1641       H  0.42039928  0.88357624  0.53369263     0.14800
N1642       N  0.57648328  0.70098004  0.59043361    -0.01500
C1643       C  0.53686292  0.66963798  0.60362952     0.01100
C1644       C  0.50337379  0.97000860  0.58456027    -0.21800
C1645       C  0.52752773  0.97710014  0.56055422    -0.22000
C1646       C  0.57294788  0.68232962  0.56531397     0.01000
H1647       H  0.46873253  0.94198253  0.58946793     0.14700
H1648       H  0.51541711  0.95464383  0.54299536     0.14800
C1649       C  0.55548795  0.79580307  0.58336971     0.82200
N1650       N  0.54801070  0.75280074  0.58605835    -0.76100
C1651       C  0.58376430  0.74678755  0.59199005     0.84600
N1652       N  0.62701052  0.78415363  0.59502657    -0.76100
C1653       C  0.63548144  0.82786934  0.59184303     0.84700
N1654       N  0.59961999  0.83321810  0.58577036    -0.77800
O1655       O  0.54661610  0.90192670  0.71375266    -0.76500
C1656       C  0.44320113  0.94486906  0.72885083     0.84500
O1657       O  0.41269577  0.78563903  0.68000854    -0.77700
O1658       O  0.39073893  0.88510260  0.63989811    -0.79100
O1659       O  0.55576303  0.99878114  0.64544255    -0.78900
O1660       O  0.59296716  0.93384006  0.67756631    -0.77600
Zn1661     Zn  0.48525725  0.89167090  0.70688205     1.55700
O1662       O  0.48344122  0.98312250  0.64057105    -0.79000
Cd1663     Cd  0.54510789  0.93484429  0.65331673     1.57300
Cd1664     Cd  0.45589373  0.83736803  0.65411558     1.59600
O1665       O  0.54133806  0.90269588  0.61640140    -0.79000
O1666       O  0.48239345  0.89965434  0.67082324    -1.89500
Cd1667     Cd  0.44364091  0.92852489  0.66691752     1.59900
O1668       O  0.50320694  0.82959580  0.62919559    -0.78900
O1669       O  0.42378926  0.94290011  0.70696410    -0.77600
C1670       C  0.40732754  0.79019003  0.70504776     0.85000
C1671       C  0.58567580  0.91811042  0.70109830     0.84600
O1672       O  0.47567050  0.93591142  0.72901349    -0.76500
C1673       C  0.52532377  0.99875030  0.63141433     0.85400
O1674       O  0.43365356  0.82783530  0.71778792    -0.76600
C1675       C  0.52447965  0.85968094  0.61111987     0.85600
C1676       C  0.39418648  0.85776627  0.62234686     0.85900
O1677       O  0.41640303  0.83763719  0.62611164    -0.79000
N1678       N  0.53671057  0.87894014  0.42950890    -0.01500
C1679       C  0.52922452  0.83956919  0.41570185     0.01100
C1680       C  0.52489577  0.80650589  0.43266098    -0.21800
C1681       C  0.53540578  0.82709477  0.45727550    -0.22000
C1682       C  0.54632648  0.87234456  0.45439982     0.01000
H1683       H  0.52245420  0.77388343  0.42694144     0.14700
H1684       H  0.54249920  0.81314907  0.47410674     0.14800
N1685       N  0.38777979  0.79053303  0.41127243    -0.01500
C1686       C  0.38091009  0.77994339  0.38483142     0.01100
C1687       C  0.39101151  0.74587993  0.37707109    -0.21800
C1688       C  0.40013088  0.73194248  0.39971770    -0.22000
C1689       C  0.39522052  0.75780199  0.42029715     0.01000
H1690       H  0.71444271  0.72856103  0.35993126     0.14700
H1691       H  0.40504119  0.70304250  0.40142400     0.14800
N1692       N  0.45306283  0.95633037  0.40598713    -0.01500
C1693       C  0.41380024  0.95203556  0.41864515     0.01100
C1694       C  0.38339054  0.61643353  0.39927494    -0.21800
C1695       C  0.40676003  0.62543019  0.37513530    -0.22000
C1696       C  0.45103416  0.63352512  0.37926112     0.01000
H1697       H  0.35026329  0.61434111  0.40361075     0.14700
H1698       H  0.39607696  0.63462844  0.35769883     0.14800
C1699       C  0.45837783  0.91703985  0.40955448     0.82200
N1700       N  0.41958932  0.87352444  0.40791529    -0.76100
C1701       C  0.41765359  0.83786233  0.42043196     0.84600
N1702       N  0.45464167  0.84723691  0.43466001    -0.76100
C1703       C  0.49710651  0.88516383  0.42935262     0.84700
N1704       N  0.49913984  0.92210570  0.41779648    -0.77800
O1705       O  0.64366837  0.68090316  0.55830842    -0.76500
C1706       C  0.35347026  0.90815829  0.54650238     0.84500
O1707       O  0.47278239  0.74387077  0.51275889    -0.77700
O1708       O  0.36366211  0.93261314  0.45692596    -0.79100
O1709       O  0.59860351  0.95231434  0.46707454    -0.78900
O1710       O  0.61106630  0.68910558  0.52278461    -0.77600
Zn1711     Zn  0.36428151  0.67234288  0.54235409     1.55700
O1712       O  0.60066607  0.89744933  0.48814268    -0.79000
Cd1713     Cd  0.64762975  0.67927126  0.49005573     1.59700
Cd1714     Cd  0.42286422  0.69784246  0.48581570     1.59600
O1715       O  0.35117749  0.73362581  0.46128302    -0.79000
O1716       O  0.35993301  0.66580621  0.50399044    -1.89500
Cd1717     Cd  0.33436781  0.93345345  0.49418003     1.59900
O1718       O  0.41798951  0.73327602  0.45574143    -0.78900
O1719       O  0.34612090  0.89925697  0.52178490    -0.77600
C1720       C  0.46868190  0.75275661  0.53755325     0.85000
C1721       C  0.61262104  0.68640528  0.54804390     0.84600
O1722       O  0.35861473  0.94545555  0.55786924    -0.76500
C1723       C  0.58259876  0.90953190  0.47113655     0.85400
O1724       O  0.43010272  0.72897591  0.55107024    -0.76600
C1725       C  0.38888311  0.74332227  0.44799627     0.85600
C1726       C  0.40563359  0.95601272  0.44773566     0.85900
O1727       O  0.43742692  0.65372507  0.46122324    -0.79000
N1728       N  0.62648573  0.68165425  0.24281984    -0.01500
C1729       C  0.62235629  0.71830047  0.25121649     0.01100
C1730       C  0.61965341  0.74097585  0.23000328    -0.21800
C1731       C  0.61544023  0.04394812  0.21027103    -0.22000
C1732       C  0.61375706  0.00461866  0.21882050     0.01000
H1733       H  0.61629325  0.77130571  0.23083892     0.14700
H1734       H  0.60746045  0.04925226  0.19065976     0.14800
N1735       N  0.44264258  0.74741900  0.24692351    -0.01500
C1736       C  0.44395490  0.74774125  0.21974903     0.01100
C1737       C  0.47723487  0.73822194  0.20912064    -0.21800
C1738       C  0.50141203  0.73824714  0.23002878    -0.22000
C1739       C  0.48117506  0.74617896  0.25289509     0.01000
H1740       H  0.48908923  0.74070203  0.18839979     0.14700
H1741       H  0.53313351  0.73711207  0.22843075     0.14800
N1742       N  0.37900147  0.94113354  0.26615642    -0.01500
C1743       C  0.42068776  0.95461153  0.25261005     0.01100
C1744       C  0.45431769  0.96309382  0.27068671    -0.21800
C1745       C  0.43154087  0.94705424  0.29479677    -0.22000
C1746       C  0.38517110  0.93090987  0.29086601     0.01000
H1747       H  0.48923454  0.96996059  0.26563644     0.14700
H1748       H  0.44563121  0.93982946  0.31149372     0.14800
C1749       C  0.32036539  0.66293615  0.24968480     0.82200
N1750       N  0.35782765  0.70740922  0.24967070    -0.76100
C1751       C  0.39843821  0.71707539  0.26048645     0.84600
N1752       N  0.39678607  0.68366947  0.27492333    -0.76100
C1753       C  0.36683404  0.97642756  0.26801850     0.84700
N1754       N  0.32773127  0.97098829  0.25718239    -0.77800
O1755       O  0.43055821  0.89915734  0.22868024    -0.76500
C1756       C  0.44162537  0.78374572  0.20620193     0.84500
O1757       O  0.58389097  0.95422396  0.18141320    -0.77700
O1758       O  0.46635129  0.82585271  0.11953969    -0.79100
O1759       O  0.39283791  0.89220696  0.13812359    -0.78900
O1760       O  0.43048687  0.95229411  0.20395841    -0.77600
Zn1761     Zn  0.47495116  0.88568603  0.20856598     1.55700
O1762       O  0.37134401  0.81920437  0.14539905    -0.79000
Cd1763     Cd  0.44562668  0.92955328  0.16536619     1.59700
Cd1764     Cd  0.53298740  0.91155689  0.15527362     1.59600
O1765       O  0.49303881  0.98112829  0.13848534    -0.79000
O1766       O  0.47008097  0.88781257  0.17181765    -1.89500
Cd1767     Cd  0.43255255  0.82507178  0.15571437     1.59900
O1768       O  0.53613813  0.95015701  0.12513089    -0.78900
O1769       O  0.42752435  0.77683045  0.18234318    -0.77600
C1770       C  0.57844973  0.96111369  0.20619745     0.85000
C1771       C  0.42496178  0.93341036  0.22662959     0.84600
O1772       O  0.45997244  0.82329311  0.21793529    -0.76500
C1773       C  0.37555446  0.85008399  0.12997119     0.85400
O1774       O  0.53987991  0.93614736  0.21911842    -0.76600
C1775       C  0.51903776  0.97505646  0.12095141     0.85600
C1776       C  0.50972415  0.84184617  0.11454873     0.85900
O1777       O  0.53916244  0.86166001  0.13286608    -0.79000
O1778       O  0.64168069  0.77709295  0.28373720    -0.76500
C1779       C  0.50581159  0.76061067  0.27853958     0.84500
O1780       O  0.34080507  0.89078108  0.32972139    -0.77700
O1781       O  0.51545769  0.81112543  0.37081585    -0.79100
O1782       O  0.52967532  0.67529597  0.35925481    -0.78900
O1783       O  0.59606255  0.70532468  0.29742654    -0.77600
Zn1784     Zn  0.60272089  0.80153162  0.29883149     1.55700
O1785       O  0.48280915  0.70380399  0.35672861    -0.79000
Cd1786     Cd  0.58848214  0.72682185  0.33702466     1.59700
Cd1787     Cd  0.62802259  0.83602405  0.35679813     1.59600
O1788       O  0.64858345  0.74886227  0.35744910    -0.79000
O1789       O  0.58348378  0.78300230  0.33424794    -1.89500
Cd1790     Cd  0.51786677  0.76791899  0.33926435     1.59900
O1791       O  0.34190541  0.81805830  0.37246998    -0.78900
O1792       O  0.48630906  0.75990723  0.30148757    -0.77600
C1793       C  0.67371182  0.89672518  0.30799360     0.85000
C1794       C  0.62155537  0.73380533  0.27917701     0.84600
O1795       O  0.54893527  0.77447102  0.27628226    -0.76500
C1796       C  0.49043034  0.67271482  0.36432250     0.85400
O1797       O  0.63937316  0.86893558  0.29410336    -0.76600
C1798       C  0.34392561  0.78117222  0.37141494     0.85600
C1799       C  0.54574028  0.83701074  0.38808256     0.85900
O1800       O  0.58922624  0.85109566  0.38475452    -0.79000
N1801       N  0.67776471  0.13632316  0.09300398    -0.01500
C1802       C  0.70680451  0.17841406  0.10454459     0.01100
C1803       C  0.73808380  0.20877749  0.08594622    -0.21800
C1804       C  0.73205717  0.18368413  0.06261640    -0.22000
C1805       C  0.69713435  0.13871352  0.06797097     0.01000
H1806       H  0.76481769  0.24414127  0.08984710     0.14700
H1807       H  0.75425416  0.19569948  0.04471363     0.14800
N1808       N  0.90743775  0.18972861  0.07979279    -0.01500
C1809       C  0.86544238  0.18343885  0.08809397     0.01100
C1810       C  0.84112481  0.18341793  0.06698192    -0.21800
C1811       C  0.87145986  0.19596598  0.04520906    -0.22000
C1812       C  0.91306429  0.20259944  0.05384819     0.01000
H1813       H  0.80745187  0.18034205  0.06801691     0.14700
H1814       H  0.86616067  0.20649743  0.02637335     0.14800
N1815       N  0.84354377  0.02485728  0.08733671    -0.01500
C1816       C  0.85393048  0.32536582  0.09702105     0.01100
C1817       C  0.85240178  0.29508316  0.07697833    -0.21800
C1818       C  0.83704783  0.30472916  0.05510790    -0.22000
C1819       C  0.83168268  0.01221147  0.06152038     0.01000
H1820       H  0.85657414  0.26583207  0.07911991     0.14700
H1821       H  0.82619889  0.28391958  0.03688281     0.14800
C1822       C  0.91348535  0.15199036  0.08622789     0.82200
N1823       N  0.87569144  0.10791764  0.08741791    -0.76100
C1824       C  0.88068768  0.07164402  0.09269291     0.84600
N1825       N  0.92442863  0.07958516  0.09612303    -0.76100
C1826       C  0.96222466  0.12285996  0.09435778     0.84700
N1827       N  0.95646393  0.15901104  0.08929614    -0.77800
N1828       N  0.91476674  0.32100474  0.91650162    -0.01500
C1829       C  0.94706746  0.31240133  0.92534764     0.01100
C1830       C  0.97763161  0.98292621  0.90368712    -0.21800
C1831       C  0.96364859  0.99092127  0.88083546    -0.22000
C1832       C  0.92808427  0.99936129  0.88819773     0.01000
H1833       H  0.00751314  0.97960647  0.90584931     0.14700
H1834       H  0.98254167  0.99755779  0.86174533     0.14800
N1835       N  0.82969931  0.17029518  0.92792458    -0.01500
C1836       C  0.87042894  0.18079343  0.91386477     0.01100
C1837       C  0.90374983  0.18540272  0.93079131    -0.21800
C1838       C  0.88209085  0.17163845  0.95521194    -0.22000
C1839       C  0.83625582  0.15960435  0.95253843     0.01000
H1840       H  0.93747893  0.18978855  0.92495491     0.14700
H1841       H  0.89642158  0.16468032  0.97189802     0.14800
C1842       C  0.78874438  0.24659050  0.90934006     0.82200
N1843       N  0.83156902  0.28661400  0.91021736    -0.76100
C1844       C  0.86635042  0.28857900  0.92382866     0.84600
N1845       N  0.85658110  0.25011896  0.93665383    -0.76100
C1846       C  0.82080104  0.20797314  0.92894773     0.84700
N1847       N  0.78469477  0.20579849  0.91620716    -0.77800
N1848       N  0.74839878  0.25019707  0.90505803    -0.01500
C1849       C  0.75075847  0.28793914  0.91810810     0.01100
C1850       C  0.75501030  0.31987083  0.90040906    -0.21800
C1851       C  0.74735402  0.29845584  0.87589375    -0.22000
C1852       C  0.73969608  0.25440193  0.87930061     0.01000
H1853       H  0.75740888  0.35273359  0.90522506     0.14700
H1854       H  0.07171626  0.31453145  0.85973469     0.14800
O1855       O  0.76398100  0.01813271  0.05902093    -0.76500
C1856       C  0.69229396  0.09888149  0.05084205     0.84500
O1857       O  0.96581471  0.23628396  0.01668679    -0.77700
O1858       O  0.97906979  0.03028516  0.96378111    -0.79100
O1859       O  0.81085130  0.10783438  0.98788500    -0.78900
O1860       O  0.80811624  0.02589681  0.02201149    -0.77600
Zn1861     Zn  0.70294904  0.01135818  0.04573303     1.55700
O1862       O  0.75565447  0.11072439  0.96762762    -0.79000
Cd1863     Cd  0.77474621  0.03831090  0.99416108     1.59700
Cd1864     Cd  0.01076604  0.28524583  0.98870407     1.59600
O1865       O  0.77382789  0.33673761  0.95672559    -0.79000
O1866       O  0.71041784  0.01641067  0.00701737    -1.89500
Cd1867     Cd  0.69845172  0.06378647  0.99265802     1.59900
O1868       O  0.71492522  0.26467010  0.96201962    -0.78900
O1869       O  0.69157858  0.10162836  0.02551092    -0.77600
C1870       C  0.95701954  0.24089442  0.04143014     0.85000
C1871       C  0.80043264  0.02112974  0.04709223     0.84600
O1872       O  0.69480534  0.06614659  0.06123373    -0.76500
C1873       C  0.79876595  0.12541360  0.97059439     0.85400
O1874       O  0.98101307  0.27961612  0.05429266    -0.76600
C1875       C  0.74786496  0.29570463  0.94748220     0.85600
C1876       C  0.96356365  0.31997983  0.95257563     0.85900
O1877       O  0.97169365  0.28982368  0.96072520    -0.79000
N1878       N  0.95384054  0.24147670  0.73874083    -0.01500
C1879       C  0.94634531  0.20042522  0.74680610     0.01100
C1880       C  0.94039715  0.17138609  0.72503417    -0.21800
C1881       C  0.94366281  0.19499678  0.70295579    -0.22000
C1882       C  0.94926597  0.23704976  0.71186685     0.01000
H1883       H  0.93227257  0.13598993  0.72515333     0.14700
H1884       H  0.93397603  0.17949891  0.68318781     0.14800
N1885       N  0.77525387  0.99885014  0.76576689    -0.01500
C1886       C  0.76538389  0.28512380  0.75753239     0.01100
C1887       C  0.76203161  0.25678219  0.77763083    -0.21800
C1888       C  0.77315259  0.95782878  0.80069870    -0.22000
C1889       C  0.78047148  0.99977343  0.79257032     0.01000
H1890       H  0.76089050  0.22408605  0.77508467     0.14700
H1891       H  0.77914196  0.95009591  0.82020059     0.14800
N1892       N  0.69410913  0.07852611  0.74346983    -0.01500
C1893       C  0.65570888  0.07906272  0.75313652     0.01100
C1894       C  0.63003047  0.07956833  0.73287687    -0.21800
C1895       C  0.65595815  0.08456103  0.70986224    -0.22000
C1896       C  0.69638616  0.08678445  0.71707383     0.01000
H1897       H  0.59787207  0.08000768  0.73490381     0.14700
H1898       H  0.64968676  0.09362026  0.69081865     0.14800
C1899       C  0.73516082  0.00055970  0.75941705     0.82200
N1900       N  0.68992302  0.29551292  0.76767978    -0.76100
C1901       C  0.99114234  0.28320212  0.74959781     0.84600
N1902       N  0.99137756  0.99081523  0.74967611    -0.76100
C1903       C  0.69546494  0.03828246  0.74980065     0.84700
N1904       N  0.73646083  0.04072946  0.75470456    -0.77800
O1905       O  0.95018142  0.15172029  0.77576754    -0.76500
C1906       C  0.97989602  0.07900313  0.78387340     0.84500
O1907       O  0.82060054  0.03956507  0.83135496    -0.77700
O1908       O  0.96286736  0.06316374  0.86039770    -0.79100
O1909       O  0.00989640  0.22788233  0.85190810    -0.78900
O1910       O  0.94012731  0.20654861  0.79573089    -0.77600
Zn1911     Zn  0.91583722  0.10192699  0.80006949     1.55700
O1912       O  0.69941082  0.17656080  0.85952309    -0.79000
Cd1913     Cd  0.94335474  0.18875094  0.83630155     1.59700
Cd1914     Cd  0.87431342  0.08177389  0.85647464     1.59600
O1915       O  0.90075861  0.19281099  0.86870109    -0.79000
O1916       O  0.93009933  0.12478330  0.83489095    -1.89500
Cd1917     Cd  0.98688161  0.12131634  0.83860585     1.59900
O1918       O  0.85910480  0.12027495  0.88405062    -0.78900
O1919       O  0.67140577  0.10883200  0.79827334    -0.77600
C1920       C  0.81708396  0.04072681  0.80628642     0.85000
C1921       C  0.94665197  0.18706665  0.77446505     0.84600
O1922       O  0.93684350  0.05788103  0.79055776    -0.76500
C1923       C  0.70201765  0.21569872  0.86334216     0.85400
O1924       O  0.84938705  0.07194737  0.79202863    -0.76600
C1925       C  0.87392876  0.16358523  0.88654620     0.85600
C1926       C  0.92612263  0.03528210  0.87399812     0.85900
O1927       O  0.88975617  0.03861997  0.87602068    -0.79000
N1928       N  0.85334071  0.13797522  0.57571877    -0.01500
C1929       C  0.85929575  0.17979931  0.58281964     0.01100
C1930       C  0.85841052  0.20226226  0.56100273    -0.21800
C1931       C  0.84632974  0.17096548  0.54000568    -0.22000
C1932       C  0.84089895  0.13063377  0.54973385     0.01000
H1933       H  0.86110234  0.23545179  0.56099779     0.14700
H1934       H  0.83545844  0.17479532  0.52091034     0.14800
N1935       N  0.68354840  0.19780196  0.58661917    -0.01500
C1936       C  0.71647321  0.19007329  0.59495161     0.01100
C1937       C  0.74595799  0.19148535  0.57408765    -0.21800
C1938       C  0.73526964  0.20696001  0.55270789    -0.22000
C1939       C  0.69878163  0.21292508  0.56132569     0.01000
H1940       H  0.77579498  0.18768597  0.57537131     0.14700
H1941       H  0.75539739  0.21790145  0.53404758     0.14800
N1942       N  0.90948051  0.03508833  0.58964354    -0.01500
C1943       C  0.86966756  0.00341253  0.60256219     0.01100
C1944       C  0.83314220  0.30418848  0.58532095    -0.21800
C1945       C  0.85736177  0.31143028  0.56129184    -0.22000
C1946       C  0.90583235  0.01745696  0.56424400     0.01000
H1947       H  0.79861372  0.27607610  0.59023550     0.14700
H1948       H  0.84541992  0.28898945  0.54372209     0.14800
C1949       C  0.88936643  0.13068406  0.58418867     0.82200
N1950       N  0.88200871  0.08753791  0.58533435    -0.76100
C1951       C  0.91702272  0.08094095  0.59192464     0.84600
N1952       N  0.95978537  0.11799199  0.59689312    -0.76100
C1953       C  0.96843085  0.16208137  0.59497528     0.84700
N1954       N  0.93290174  0.16788674  0.58871118    -0.77800
O1955       O  0.87780495  0.23030933  0.71237054    -0.76500
C1956       C  0.77968557  0.27736373  0.73001318     0.84500
O1957       O  0.74607771  0.11751697  0.67874762    -0.77700
O1958       O  0.72327399  0.21646711  0.64098551    -0.79100
O1959       O  0.88738793  0.33232577  0.64572625    -0.78900
O1960       O  0.92615442  0.26643586  0.67750553    -0.77600
Zn1961     Zn  0.81792659  0.22222171  0.70632121     1.55700
O1962       O  0.81419679  0.31492505  0.64175563    -0.79000
Cd1963     Cd  0.87852001  0.26893931  0.65348412     1.57300
Cd1964     Cd  0.79044435  0.17063034  0.65379712     1.59600
O1965       O  0.87521161  0.23812308  0.61620431    -0.79000
O1966       O  0.81580622  0.23241741  0.67082169    -1.89500
Cd1967     Cd  0.77621968  0.26037974  0.66801631     1.59900
O1968       O  0.83896957  0.16504315  0.62890968    -0.78900
O1969       O  0.75964821  0.27644886  0.70857863    -0.77600
C1970       C  0.73967208  0.12173155  0.70371007     0.85000
C1971       C  0.91730354  0.24750767  0.70023437     0.84600
O1972       O  0.81007552  0.26559700  0.72952636    -0.76500
C1973       C  0.85595823  0.33163141  0.63223279     0.85400
O1974       O  0.76576692  0.15901719  0.71670224    -0.76600
C1975       C  0.85924403  0.19530615  0.61083097     0.85600
C1976       C  0.72835033  0.19097177  0.62274187     0.85900
O1977       O  0.75155921  0.17170308  0.62595679    -0.79000
N1978       N  0.87170253  0.21203434  0.43228001    -0.01500
C1979       C  0.86725979  0.17368965  0.41873730     0.01100
C1980       C  0.86725291  0.14286662  0.43579361    -0.21800
C1981       C  0.87598165  0.16375371  0.46036542    -0.22000
C1982       C  0.88156448  0.20699602  0.45740059     0.01000
H1983       H  0.86821187  0.11186223  0.43019389     0.14700
H1984       H  0.88494129  0.15180039  0.47736835     0.14800
N1985       N  0.71935797  0.12274095  0.41378942    -0.01500
C1986       C  0.71110133  0.11159165  0.38744044     0.01100
C1987       C  0.72132166  0.07777457  0.37928618    -0.21800
C1988       C  0.73164342  0.06427453  0.40161704    -0.22000
C1989       C  0.72694896  0.08983025  0.42238060     0.01000
H1990       H  0.04929794  0.06276634  0.35845230     0.14700
H1991       H  0.73736440  0.03592605  0.40308516     0.14800
N1992       N  0.78918340  0.28891236  0.40663519    -0.01500
C1993       C  0.75028776  0.28571362  0.41902624     0.01100
C1994       C  0.71889412  0.95214503  0.39956795    -0.21800
C1995       C  0.74157868  0.96189195  0.37518079    -0.22000
C1996       C  0.78612611  0.97021623  0.37869359     0.01000
H1997       H  0.68558025  0.94934794  0.40446547     0.14700
H1998       H  0.73000382  0.97083012  0.35801062     0.14800
C1999       C  0.79328942  0.24928683  0.41125606     0.82200
N2000       N  0.75393798  0.20609561  0.40998658    -0.76100
C2001       C  0.75161346  0.17003776  0.42220398     0.84600
N2002       N  0.78922123  0.17836016  0.43551859    -0.76100
C2003       C  0.83155115  0.21688163  0.43094070     0.84700
N2004       N  0.83374382  0.25399786  0.41962338    -0.77800
O2005       O  0.97665630  0.01675413  0.55755143    -0.76500
C2006       C  0.68914012  0.24369321  0.54677444     0.84500
O2007       O  0.80722180  0.07694001  0.51352232    -0.77700
O2008       O  0.70038721  0.26695542  0.45722703    -0.79100
O2009       O  0.93186919  0.28799091  0.46836490    -0.78900
O2010       O  0.94368973  0.02348860  0.52169621    -0.77600
Zn2011     Zn  0.69852570  0.00407806  0.54328496     1.55700
O2012       O  0.92716883  0.23597433  0.49523031    -0.79000
Cd2013     Cd  0.98089801  0.01379443  0.48924845     1.59700
Cd2014     Cd  0.75742260  0.03054432  0.48676054     1.59600
O2015       O  0.68233027  0.06225048  0.46269903    -0.79000
O2016       O  0.69419070  0.99640039  0.50487594    -1.89500
Cd2017     Cd  0.67014023  0.26818412  0.49393183     1.59900
O2018       O  0.75161727  0.06677490  0.45757561    -0.78900
O2019       O  0.68183355  0.23450587  0.52206560    -0.77600
C2020       C  0.80303263  0.08596151  0.53825960     0.85000
C2021       C  0.94542920  0.02156558  0.54702514     0.84600
O2022       O  0.69419743  0.28115885  0.55786765    -0.76500
C2023       C  0.91333654  0.24585173  0.47500316     0.85400
O2024       O  0.76461343  0.06158972  0.55185817    -0.76600
C2025       C  0.72106063  0.07483295  0.44986371     0.85600
C2026       C  0.74220372  0.29096938  0.44797815     0.85900
O2027       O  0.77405357  0.98906650  0.46103877    -0.79000
N2028       N  0.95551305  0.01436684  0.24423967    -0.01500
C2029       C  0.95329064  0.05260659  0.25125868     0.01100
C2030       C  0.95672146  0.07683763  0.22913798    -0.21800
C2031       C  0.96781795  0.38420085  0.21269709    -0.22000
C2032       C  0.96359814  0.34376320  0.22137247     0.01000
H2033       H  0.95777088  0.10945619  0.22878610     0.14700
H2034       H  0.96008318  0.38991727  0.19311766     0.14800
N2035       N  0.78629320  0.09070755  0.24816680    -0.01500
C2036       C  0.78712355  0.09024670  0.22107800     0.01100
C2037       C  0.82135425  0.08206601  0.21050504    -0.21800
C2038       C  0.84651099  0.08420774  0.23144591    -0.22000
C2039       C  0.82544576  0.09144647  0.25412915     0.01000
H2040       H  0.83313418  0.08449788  0.18977051     0.14700
H2041       H  0.87885788  0.08440652  0.23000463     0.14800
N2042       N  0.71501013  0.27812138  0.26889315    -0.01500
C2043       C  0.75837287  0.29067861  0.25806574     0.01100
C2044       C  0.78804292  0.29712509  0.27826816    -0.21800
C2045       C  0.76109227  0.28107277  0.30113288    -0.22000
C2046       C  0.71630431  0.26695245  0.29433534     0.01000
H2047       H  0.82326508  0.30357418  0.27558159     0.14700
H2048       H  0.77152055  0.27302663  0.31909765     0.14800
C2049       C  0.66307635  0.01126711  0.25306998     0.82200
N2050       N  0.70309341  0.05382444  0.25343125    -0.76100
C2051       C  0.74320915  0.05893070  0.26161057     0.84600
N2052       N  0.74103090  0.02183932  0.27188186    -0.76100
C2053       C  0.70410834  0.31410847  0.26900732     0.84700
N2054       N  0.66583822  0.30884316  0.25730392    -0.77800
O2055       O  0.78492012  0.24811322  0.23347085    -0.76500
C2056       C  0.78487421  0.12624269  0.20792201     0.84500
O2057       O  0.92908084  0.29695144  0.18316547    -0.77700
O2058       O  0.80809764  0.16868569  0.12233697    -0.79100
O2059       O  0.73270501  0.23046837  0.14179281    -0.78900
O2060       O  0.76417224  0.28731859  0.20881757    -0.77600
Zn2061     Zn  0.82249172  0.22901283  0.21159719     1.55700
O2062       O  0.71232348  0.15748032  0.14795888    -0.79000
Cd2063     Cd  0.78392768  0.26880682  0.16989748     1.59700
Cd2064     Cd  0.87578101  0.25541808  0.15789014     1.59600
O2065       O  0.82947817  0.32175262  0.14331615    -0.79000
O2066       O  0.81319078  0.23086813  0.17539662    -1.89500
Cd2067     Cd  0.77541580  0.16823184  0.15869719     1.59900
O2068       O  0.87534741  0.29410848  0.12910923    -0.78900
O2069       O  0.77093137  0.11971754  0.18412750    -0.77600
C2070       C  0.92650908  0.30140094  0.20845263     0.85000
C2071       C  0.76766941  0.27369146  0.23166564     0.84600
O2072       O  0.80357091  0.16551626  0.21995480    -0.76500
C2073       C  0.71383060  0.18821895  0.13357633     0.85400
O2074       O  0.88909628  0.27545894  0.22198225    -0.76600
C2075       C  0.85503104  0.31615498  0.12519502     0.85600
C2076       C  0.85115768  0.18483556  0.11635006     0.85900
O2077       O  0.88217500  0.20698221  0.13364568    -0.79000
O2078       O  0.97629548  0.11339664  0.28315006    -0.76500
C2079       C  0.84775403  0.10461155  0.28008044     0.84500
O2080       O  0.67697496  0.22229472  0.33268394    -0.77700
O2081       O  0.85225723  0.14765650  0.37337572    -0.79100
O2082       O  0.86490202  0.01303941  0.35930352    -0.78900
O2083       O  0.92733620  0.04246006  0.29735252    -0.77600
Zn2084     Zn  0.94276557  0.14228480  0.30031686     1.55700
O2085       O  0.81765451  0.04088549  0.35634955    -0.79000
Cd2086     Cd  0.92317540  0.06437049  0.33700540     1.59700
Cd2087     Cd  0.96497299  0.17358568  0.35802643     1.59600
O2088       O  0.98362524  0.08413511  0.35610973    -0.79000
O2089       O  0.92059987  0.12184036  0.33522036    -1.89500
Cd2090     Cd  0.85500161  0.10663983  0.34058739     1.59900
O2091       O  0.67057091  0.14965187  0.37719317    -0.78900
O2092       O  0.82639700  0.10198333  0.30263788    -0.77600
C2093       C  0.01438051  0.23696911  0.31020633     0.85000
C2094       C  0.95327311  0.06991570  0.27885684     0.84600
O2095       O  0.89077032  0.11902190  0.27846170    -0.76500
C2096       C  0.82532594  0.00980505  0.36390569     0.85400
O2097       O  0.98146999  0.20955084  0.29540305    -0.76600
C2098       C  0.67501951  0.11430544  0.37367363     0.85600
C2099       C  0.88281794  0.17205208  0.39081281     0.85900
O2100       O  0.92620048  0.18612073  0.38703425    -0.79000
N2101       N  0.67337520  0.46439949  0.09182168    -0.01500
C2102       C  0.70369372  0.50552150  0.10383802     0.01100
C2103       C  0.73621778  0.53565948  0.08555084    -0.21800
C2104       C  0.72883159  0.51119009  0.06183859    -0.22000
C2105       C  0.69251466  0.46663213  0.06670244     0.01000
H2106       H  0.76483505  0.57005599  0.08979568     0.14700
H2107       H  0.75160404  0.52284575  0.04412878     0.14800
N2108       N  0.90424015  0.52160408  0.08019175    -0.01500
C2109       C  0.86194287  0.51398904  0.08889182     0.01100
C2110       C  0.83803741  0.51640319  0.06837979    -0.21800
C2111       C  0.86848278  0.53107186  0.04667081    -0.22000
C2112       C  0.90986386  0.53647509  0.05473296     0.01000
H2113       H  0.80468768  0.51376450  0.07007043     0.14700
H2114       H  0.86335549  0.54346578  0.02846611     0.14800
N2115       N  0.84563024  0.35730931  0.08776508    -0.01500
C2116       C  0.85092330  0.65906141  0.09727023     0.01100
C2117       C  0.85199450  0.63085185  0.07664393    -0.21800
C2118       C  0.83858753  0.64208408  0.05460805    -0.22000
C2119       C  0.83112865  0.34139815  0.06261007     0.01000
H2120       H  0.85634149  0.60156001  0.07830706     0.14700
H2121       H  0.82961721  0.62267137  0.03586007     0.14800
C2122       C  0.91216987  0.48469267  0.08546456     0.82200
N2123       N  0.87535051  0.44006028  0.08677950    -0.76100
C2124       C  0.88234424  0.40479177  0.09133669     0.84600
N2125       N  0.92679093  0.41413726  0.09361169    -0.76100
C2126       C  0.96341559  0.45786516  0.09166058     0.84700
N2127       N  0.95595773  0.49315635  0.08739189    -0.77800
N2128       N  0.91339962  0.65268549  0.91646118    -0.01500
C2129       C  0.94575141  0.64494482  0.92607505     0.01100
C2130       C  0.97296353  0.30729189  0.90466045    -0.21800
C2131       C  0.96066778  0.31849845  0.88222785    -0.22000
C2132       C  0.92731299  0.32970367  0.89022167     0.01000
H2133       H  0.00144359  0.30144549  0.90626250     0.14700
H2134       H  0.97917075  0.32473130  0.86303068     0.14800
N2135       N  0.82753011  0.50155773  0.92784174    -0.01500
C2136       C  0.86808013  0.51227713  0.91347749     0.01100
C2137       C  0.90229405  0.51857080  0.93024705    -0.21800
C2138       C  0.88126777  0.50480094  0.95480963    -0.22000
C2139       C  0.83494606  0.49124092  0.95237581     0.01000
H2140       H  0.93623529  0.52364396  0.92422759     0.14700
H2141       H  0.89636716  0.49842217  0.97134156     0.14800
C2142       C  0.78717200  0.57857679  0.90959392     0.82200
N2143       N  0.83027014  0.61825286  0.91002941    -0.76100
C2144       C  0.86496151  0.62008382  0.92360106     0.84600
N2145       N  0.85507982  0.58164340  0.93652229    -0.76100
C2146       C  0.81889585  0.53950996  0.92908799     0.84700
N2147       N  0.78270448  0.53763018  0.91658302    -0.77800
N2148       N  0.74718716  0.58280149  0.90541805    -0.01500
C2149       C  0.75058638  0.62140497  0.91790301     0.01100
C2150       C  0.75495727  0.65273564  0.89973245    -0.21800
C2151       C  0.74558525  0.62991997  0.87562147    -0.22000
C2152       C  0.73806020  0.58612813  0.87964249     0.01000
H2153       H  0.75875587  0.68632937  0.90403609     0.14700
H2154       H  0.07111622  0.64566085  0.86055120     0.14800
O2155       O  0.76344581  0.34729765  0.05914091    -0.76500
C2156       C  0.68883463  0.42680369  0.04990092     0.84500
O2157       O  0.96319763  0.56978881  0.01790985    -0.77700
O2158       O  0.97820348  0.35953648  0.96426707    -0.79100
O2159       O  0.81145834  0.43672530  0.98620214    -0.78900
O2160       O  0.80853212  0.35515072  0.02253217    -0.77600
Zn2161     Zn  0.70288379  0.34116500  0.04519195     1.55700
O2162       O  0.75504800  0.44065682  0.96787271    -0.79000
Cd2163     Cd  0.77553215  0.36748299  0.99395551     1.59700
Cd2164     Cd  0.00833608  0.61879210  0.99018253     1.59600
O2165       O  0.77304757  0.67058484  0.95642289    -0.79000
O2166       O  0.71098286  0.34575083  0.00649239    -1.89500
Cd2167     Cd  0.69765857  0.39207865  0.99200338     1.59900
O2168       O  0.71254923  0.59906484  0.96133760    -0.78900
O2169       O  0.68752576  0.42864678  0.02453513    -0.77600
C2170       C  0.95410885  0.57445413  0.04257635     0.85000
C2171       C  0.80018536  0.35023554  0.04761247     0.84600
O2172       O  0.69345675  0.39546446  0.06047674    -0.76500
C2173       C  0.79833256  0.45526074  0.97005872     0.85400
O2174       O  0.97802783  0.61307680  0.05554107    -0.76600
C2175       C  0.74661795  0.62965130  0.94712884     0.85600
C2176       C  0.96061819  0.65224214  0.95364327     0.85900
O2177       O  0.96945067  0.62267616  0.96191665    -0.79000
N2178       N  0.95407350  0.57342289  0.74134478    -0.01500
C2179       C  0.95301778  0.53444130  0.74772070     0.01100
C2180       C  0.95436542  0.51051205  0.72479416    -0.21800
C2181       C  0.95471714  0.53485057  0.70369257    -0.22000
C2182       C  0.95266002  0.57243000  0.71431689     0.01000
H2183       H  0.95232288  0.47746647  0.72340919     0.14700
H2184       H  0.94920334  0.52222218  0.68318569     0.14800
N2185       N  0.77140685  0.32593452  0.76809907    -0.01500
C2186       C  0.76256899  0.61579323  0.75690108     0.01100
C2187       C  0.76139238  0.58676126  0.77591663    -0.21800
C2188       C  0.76994316  0.28180379  0.80098583    -0.22000
C2189       C  0.77881021  0.32497123  0.79435678     0.01000
H2190       H  0.76240405  0.55534161  0.77206495     0.14700
H2191       H  0.77773411  0.27269003  0.81953257     0.14800
N2192       N  0.70198309  0.41559067  0.74389209    -0.01500
C2193       C  0.66465828  0.41745966  0.75415804     0.01100
C2194       C  0.63780760  0.41704118  0.73431764    -0.21800
C2195       C  0.66287600  0.42188396  0.71098763    -0.22000
C2196       C  0.70371473  0.42445878  0.71766360     0.01000
H2197       H  0.60490470  0.41593146  0.73677292     0.14700
H2198       H  0.65572222  0.43053975  0.69207729     0.14800
C2199       C  0.73340365  0.33263435  0.76430196     0.82200
N2200       N  0.68585860  0.62501438  0.77005561    -0.76100
C2201       C  0.98418682  0.61599004  0.75497768     0.84600
N2202       N  0.99284981  0.32396343  0.74848894    -0.76100
C2203       C  0.70040843  0.37357246  0.74957711     0.84700
N2204       N  0.73926070  0.37328392  0.75610003    -0.77800
O2205       O  0.94461723  0.47800758  0.77567124    -0.76500
C2206       C  0.98374847  0.41149599  0.78645221     0.84500
O2207       O  0.81922170  0.36575174  0.83326358    -0.77700
O2208       O  0.96281303  0.39373927  0.86255124    -0.79100
O2209       O  0.00787447  0.55816977  0.85411803    -0.78900
O2210       O  0.94340392  0.53743813  0.79646649    -0.77600
Zn2211     Zn  0.91545590  0.42961943  0.80129594     1.55700
O2212       O  0.69945062  0.50766496  0.86114238    -0.79000
Cd2213     Cd  0.94238785  0.51832526  0.83721206     1.59700
Cd2214     Cd  0.87322606  0.41121586  0.85787291     1.59600
O2215       O  0.89788533  0.52249356  0.86829524    -0.79000
O2216       O  0.92916273  0.45428856  0.83603977    -1.89500
Cd2217     Cd  0.98672413  0.45233080  0.84104179     1.59900
O2218       O  0.85724828  0.45058060  0.88464905    -0.78900
O2219       O  0.67812377  0.44360434  0.79987243    -0.77600
C2220       C  0.81626541  0.36531549  0.80803425     0.85000
C2221       C  0.94768622  0.51689325  0.77500835     0.84600
O2222       O  0.94064129  0.38855642  0.79289892    -0.76500
C2223       C  0.70142998  0.54661968  0.86375965     0.85400
O2224       O  0.84910192  0.39523217  0.79348143    -0.76600
C2225       C  0.87135342  0.49384059  0.88645194     0.85600
C2226       C  0.92603229  0.36617523  0.87623277     0.85900
O2227       O  0.88989432  0.36990765  0.87832430    -0.79000
N2228       N  0.85438257  0.47455061  0.57485984    -0.01500
C2229       C  0.86256122  0.51709361  0.58244670     0.01100
C2230       C  0.86264630  0.54068740  0.56094100    -0.21800
C2231       C  0.84845638  0.50961759  0.53976700    -0.22000
C2232       C  0.84140387  0.46832926  0.54898729     0.01000
H2233       H  0.86786041  0.57486873  0.56127785     0.14700
H2234       H  0.83790510  0.51467571  0.52089223     0.14800
N2235       N  0.68520566  0.53066077  0.58651923    -0.01500
C2236       C  0.71852078  0.52341467  0.59485527     0.01100
C2237       C  0.74879057  0.52639765  0.57407374    -0.21800
C2238       C  0.73759137  0.54147320  0.55271679    -0.22000
C2239       C  0.70017296  0.54595542  0.56123608     0.01000
H2240       H  0.77955684  0.52421983  0.57548707     0.14700
H2241       H  0.75788892  0.55315701  0.53415368     0.14800
N2242       N  0.90461163  0.36688921  0.59044120    -0.01500
C2243       C  0.86366968  0.33683611  0.60300444     0.01100
C2244       C  0.83620033  0.63903774  0.58830429    -0.21800
C2245       C  0.85806462  0.64555354  0.56356562    -0.22000
C2246       C  0.90204503  0.34809847  0.56547898     0.01000
H2247       H  0.80187012  0.61126175  0.59411355     0.14700
H2248       H  0.84426187  0.62263857  0.54631041     0.14800
C2249       C  0.88947301  0.46528085  0.58258731     0.82200
N2250       N  0.88009179  0.42144415  0.58440024    -0.76100
C2251       C  0.91391757  0.41336818  0.59155163     0.84600
N2252       N  0.95717167  0.44938223  0.59644358    -0.76100
C2253       C  0.96778183  0.49388633  0.59367420     0.84700
N2254       N  0.93371828  0.50135022  0.58675024    -0.77800
O2255       O  0.88216404  0.56858095  0.71420969    -0.76500
C2256       C  0.78069523  0.61283864  0.72951882     0.84500
O2257       O  0.75423453  0.45587410  0.67988290    -0.77700
O2258       O  0.73009986  0.55586280  0.63953472    -0.79100
O2259       O  0.89365113  0.66989413  0.64785967    -0.78900
O2260       O  0.93035911  0.60054418  0.67866777    -0.77600
Zn2261     Zn  0.82304182  0.56230533  0.70698686     1.55700
O2262       O  0.82179952  0.65671269  0.64472156    -0.79000
Cd2263     Cd  0.88463538  0.60578951  0.65401993     1.57300
Cd2264     Cd  0.79574245  0.50830152  0.65401916     1.59600
O2265       O  0.88093392  0.57558737  0.61631224    -0.79000
O2266       O  0.82139281  0.57029693  0.67086424    -1.89500
Cd2267     Cd  0.78124080  0.59789927  0.66786698     1.59900
O2268       O  0.84365661  0.50235052  0.62869965    -0.78900
O2269       O  0.75911978  0.60815908  0.70808265    -0.77600
C2270       C  0.74631445  0.46080550  0.70455838     0.85000
C2271       C  0.92123234  0.58312408  0.70189854     0.84600
O2272       O  0.81628801  0.60864201  0.72880968    -0.76500
C2273       C  0.86261764  0.67018561  0.63445004     0.85400
O2274       O  0.77013127  0.49915012  0.71726468    -0.76600
C2275       C  0.86396875  0.53265036  0.61066155     0.85600
C2276       C  0.73228139  0.52711194  0.62253253     0.85900
O2277       O  0.75441009  0.50694904  0.62652869    -0.79000
N2278       N  0.86684424  0.54382148  0.43026456    -0.01500
C2279       C  0.86137934  0.50450321  0.41726752     0.01100
C2280       C  0.85560679  0.47187397  0.43498214    -0.21800
C2281       C  0.86308942  0.49269421  0.45954485    -0.22000
C2282       C  0.87427611  0.53785967  0.45588725     0.01000
H2283       H  0.85392863  0.43934853  0.43010437     0.14700
H2284       H  0.86888299  0.47922608  0.47706562     0.14800
N2285       N  0.71494884  0.45420669  0.40987720    -0.01500
C2286       C  0.70471937  0.44143231  0.38382875     0.01100
C2287       C  0.71101353  0.40472135  0.37649944    -0.21800
C2288       C  0.72117036  0.39157021  0.39904569    -0.22000
C2289       C  0.72099114  0.42060234  0.41920947     0.01000
H2290       H  0.05384341  0.39819356  0.36198078     0.14700
H2291       H  0.72390815  0.36145545  0.40109606     0.14800
N2292       N  0.78391177  0.62119531  0.40498337    -0.01500
C2293       C  0.74501933  0.61729265  0.41790929     0.01100
C2294       C  0.71887351  0.28119593  0.40092414    -0.21800
C2295       C  0.74154720  0.28879369  0.37662033    -0.22000
C2296       C  0.78599540  0.29734337  0.38071991     0.01000
H2297       H  0.68559191  0.27875563  0.40527797     0.14700
H2298       H  0.73034584  0.29694981  0.35900635     0.14800
C2299       C  0.78887161  0.58147883  0.40793760     0.82200
N2300       N  0.74992774  0.53802869  0.40568736    -0.76100
C2301       C  0.74728002  0.50174601  0.41796215     0.84600
N2302       N  0.78415521  0.51000082  0.43191740    -0.76100
C2303       C  0.82662969  0.54861913  0.42796128     0.84700
N2304       N  0.82908262  0.58611880  0.41687952    -0.77800
O2305       O  0.97367342  0.34801511  0.55973900    -0.76500
C2306       C  0.68921127  0.57578523  0.54672166     0.84500
O2307       O  0.80657361  0.41600628  0.51210984    -0.77700
O2308       O  0.69629600  0.59830087  0.45676966    -0.79100
O2309       O  0.92776056  0.61795675  0.46825621    -0.78900
O2310       O  0.94154475  0.35468473  0.52347594    -0.77600
Zn2311     Zn  0.69987301  0.34080777  0.54284369     1.55700
O2312       O  0.92688180  0.56272572  0.49074586    -0.79000
Cd2313     Cd  0.97984958  0.34561634  0.49161542     1.59700
Cd2314     Cd  0.75722000  0.36769082  0.48536635     1.59600
O2315       O  0.68213393  0.39977526  0.46176016    -0.79000
O2316       O  0.69495636  0.33326195  0.50433838    -1.89500
Cd2317     Cd  0.66833564  0.59982560  0.49433795     1.59900
O2318       O  0.74881246  0.39990109  0.45433983    -0.78900
O2319       O  0.68228475  0.56685846  0.52194655    -0.77600
C2320       C  0.80321581  0.42416912  0.53712533     0.85000
C2321       C  0.94242848  0.35245759  0.54882188     0.84600
O2322       O  0.69279257  0.61249058  0.55802742    -0.76500
C2323       C  0.91038188  0.57508633  0.47285877     0.85400
O2324       O  0.76553933  0.39881804  0.55108285    -0.76600
C2325       C  0.71849485  0.40891973  0.44728709     0.85600
C2326       C  0.73782802  0.62210990  0.44702553     0.85900
O2327       O  0.77389726  0.32401309  0.46184128    -0.79000
N2328       N  0.97117027  0.34727393  0.24803010    -0.01500
C2329       C  0.96892920  0.38523968  0.25623424     0.01100
C2330       C  0.97005607  0.41004575  0.23495520    -0.21800
C2331       C  0.95708897  0.71510067  0.21462411    -0.22000
C2332       C  0.95506470  0.67487937  0.22172480     0.01000
H2333       H  0.96805343  0.44116304  0.23571779     0.14700
H2334       H  0.94765306  0.72155630  0.19576137     0.14800
N2335       N  0.78713363  0.41878291  0.24908809    -0.01500
C2336       C  0.78710770  0.41917825  0.22202500     0.01100
C2337       C  0.81997539  0.40965577  0.21062763    -0.21800
C2338       C  0.84386669  0.40753594  0.23110488    -0.22000
C2339       C  0.82387048  0.41446626  0.25441314     0.01000
H2340       H  0.83129019  0.41268034  0.18979450     0.14700
H2341       H  0.87514539  0.40548101  0.22904214     0.14800
N2342       N  0.71375824  0.61139005  0.26949216    -0.01500
C2343       C  0.75583102  0.61963492  0.25888858     0.01100
C2344       C  0.78445386  0.62431048  0.27927036    -0.21800
C2345       C  0.75768428  0.61251548  0.30237298    -0.22000
C2346       C  0.71396267  0.60194839  0.29542237     0.01000
H2347       H  0.81827484  0.62726620  0.27686791     0.14700
H2348       H  0.76669220  0.60412238  0.32073769     0.14800
C2349       C  0.66469293  0.34809321  0.25322999     0.82200
N2350       N  0.70506806  0.39026925  0.25469362    -0.76100
C2351       C  0.74373825  0.39370135  0.26417918     0.84600
N2352       N  0.73756349  0.35699388  0.27722862    -0.76100
C2353       C  0.70583370  0.64891041  0.26756463     0.84700
N2354       N  0.66703396  0.64377054  0.25677979    -0.77800
O2355       O  0.78017795  0.57579465  0.23389416    -0.76500
C2356       C  0.78269443  0.45433676  0.20903691     0.84500
O2357       O  0.92186008  0.62938977  0.18296914    -0.77700
O2358       O  0.80450318  0.49612815  0.12339530    -0.79100
O2359       O  0.72630215  0.55640739  0.14177679    -0.78900
O2360       O  0.75893409  0.61500490  0.20951288    -0.77600
Zn2361     Zn  0.81715817  0.55656690  0.21178319     1.55700
O2362       O  0.70795296  0.48373102  0.14739238    -0.79000
Cd2363     Cd  0.77716093  0.59606519  0.17005451     1.59700
Cd2364     Cd  0.86961729  0.58555642  0.15784983     1.59600
O2365       O  0.82107799  0.64992046  0.14305735    -0.79000
O2366       O  0.80710070  0.55853131  0.17558227    -1.89500
Cd2367     Cd  0.77084055  0.49515966  0.15942625     1.59900
O2368       O  0.86815320  0.62374613  0.12910445    -0.78900
O2369       O  0.76807909  0.44734338  0.18533036    -0.77600
C2370       C  0.91952181  0.63236491  0.20831472     0.85000
C2371       C  0.76349685  0.60189350  0.23231149     0.84600
O2372       O  0.80038626  0.49364656  0.22096941    -0.76500
C2373       C  0.70922802  0.51453007  0.13308796     0.85400
O2374       O  0.88318720  0.60412178  0.22185205    -0.76600
C2375       C  0.84828039  0.64622341  0.12524920     0.85600
C2376       C  0.84778216  0.51436568  0.11722162     0.85900
O2377       O  0.87873031  0.53825269  0.13426758    -0.79000
O2378       O  0.98265760  0.44227828  0.28909366    -0.76500
C2379       C  0.84679208  0.42555622  0.28023088     0.84500
O2380       O  0.67306735  0.55692325  0.33326541    -0.77700
O2381       O  0.84931140  0.47482884  0.37250846    -0.79100
O2382       O  0.86461118  0.33918055  0.36123189    -0.78900
O2383       O  0.93548942  0.36983367  0.30109243    -0.77600
Zn2384     Zn  0.94060301  0.46480506  0.30186650     1.55700
O2385       O  0.81745623  0.36720079  0.35778412    -0.79000
Cd2386     Cd  0.92397427  0.39096375  0.33993676     1.59700
Cd2387     Cd  0.96209339  0.50127424  0.35920214     1.59600
O2388       O  0.98271746  0.41320771  0.36109737    -0.79000
O2389       O  0.91907036  0.44722640  0.33704309    -1.89500
Cd2390     Cd  0.85377631  0.43219166  0.34119643     1.59900
O2391       O  0.66522033  0.48121200  0.37499525    -0.78900
O2392       O  0.82714812  0.42748935  0.30265719    -0.77600
C2393       C  0.00662640  0.56155788  0.30964958     0.85000
C2394       C  0.96381706  0.39917960  0.28398528     0.84600
O2395       O  0.88874633  0.43537680  0.27858944    -0.76500
C2396       C  0.82512242  0.33627673  0.36565069     0.85400
O2397       O  0.97350304  0.53204445  0.29559525    -0.76600
C2398       C  0.66999722  0.44636842  0.36999496     0.85600
C2399       C  0.87886617  0.50111570  0.38999606     0.85900
O2400       O  0.92242869  0.51532235  0.38719333    -0.79000
N2401       N  0.67405985  0.79720509  0.09196239    -0.01500
C2402       C  0.70456602  0.83768365  0.10434855     0.01100
C2403       C  0.73679330  0.86871866  0.08633474    -0.21800
C2404       C  0.72902539  0.84528231  0.06224107    -0.22000
C2405       C  0.69303469  0.80043430  0.06678410     0.01000
H2406       H  0.76471790  0.90332156  0.09085037     0.14700
H2407       H  0.75098221  0.85792726  0.04428740     0.14800
N2408       N  0.90400234  0.85528082  0.07658731    -0.01500
C2409       C  0.86192597  0.84886377  0.08449734     0.01100
C2410       C  0.83858862  0.84965195  0.06317277    -0.21800
C2411       C  0.86943157  0.86217175  0.04162422    -0.22000
C2412       C  0.91054220  0.86820381  0.05066346     0.01000
H2413       H  0.80508569  0.84651852  0.06388807     0.14700
H2414       H  0.86475249  0.87286116  0.02266765     0.14800
N2415       N  0.84334152  0.69176150  0.08827276    -0.01500
C2416       C  0.84958407  0.99088984  0.09564967     0.01100
C2417       C  0.84986795  0.96291824  0.07466614    -0.21800
C2418       C  0.83775779  0.97606426  0.05290799    -0.22000
C2419       C  0.83099119  0.67749408  0.06259857     0.01000
H2420       H  0.85279529  0.93269327  0.07588810     0.14700
H2421       H  0.82830426  0.95735190  0.03395125     0.14800
C2422       C  0.91106765  0.81868968  0.08382901     0.82200
N2423       N  0.87380869  0.77448402  0.08641377    -0.76100
C2424       C  0.88003311  0.73926386  0.09249073     0.84600
N2425       N  0.92439914  0.74852860  0.09535437    -0.76100
C2426       C  0.96142863  0.79195189  0.09215906     0.84700
N2427       N  0.95452000  0.82689115  0.08628949    -0.77800
N2428       N  0.91569282  0.99120733  0.91455641    -0.01500
C2429       C  0.94999311  0.98620157  0.92389395     0.01100
C2430       C  0.97299055  0.64054009  0.90597162    -0.21800
C2431       C  0.96134055  0.65119561  0.88309911    -0.22000
C2432       C  0.92690667  0.66131148  0.89024089     0.01000
H2433       H  0.00166546  0.63527627  0.90828203     0.14700
H2434       H  0.98059604  0.65744626  0.86415338     0.14800
N2435       N  0.82742897  0.83567505  0.92733199    -0.01500
C2436       C  0.86694638  0.84302730  0.91302460     0.01100
C2437       C  0.90081805  0.84849647  0.92976576    -0.21800
C2438       C  0.88035030  0.83786982  0.95462159    -0.22000
C2439       C  0.83447921  0.82614533  0.95222169     0.01000
H2440       H  0.93374784  0.85112791  0.92379302     0.14700
H2441       H  0.89488888  0.83128600  0.97135761     0.14800
C2442       C  0.78870775  0.91579067  0.91056364     0.82200
N2443       N  0.83181439  0.95548193  0.91061751    -0.76100
C2444       C  0.86808806  0.95669915  0.92198598     0.84600
N2445       N  0.86035920  0.91744201  0.93294390    -0.76100
C2446       C  0.82203900  0.87568676  0.92730001     0.84700
N2447       N  0.78455518  0.87456292  0.91682114    -0.77800
N2448       N  0.74866169  0.91986881  0.90596709    -0.01500
C2449       C  0.75149843  0.95825063  0.91853218     0.01100
C2450       C  0.75649182  0.98996526  0.90043187    -0.21800
C2451       C  0.74897553  0.96808019  0.87609366    -0.22000
C2452       C  0.74055773  0.92390049  0.88000897     0.01000
H2453       H  0.75974255  0.02331045  0.90481814     0.14700
H2454       H  0.07140853  0.97239510  0.85483193     0.14800
O2455       O  0.76250949  0.68187900  0.05883165    -0.76500
C2456       C  0.68924417  0.76108570  0.04964223     0.84500
O2457       O  0.96268818  0.90268066  0.01358772    -0.77700
O2458       O  0.97380078  0.69139125  0.96552437    -0.79100
O2459       O  0.81032290  0.77113101  0.98589086    -0.78900
O2460       O  0.80790497  0.69029470  0.02232559    -0.77600
Zn2461     Zn  0.70167132  0.67465955  0.04474031     1.55700
O2462       O  0.75434042  0.77531114  0.96730475    -0.79000
Cd2463     Cd  0.77441645  0.70171462  0.99353952     1.59700
Cd2464     Cd  0.00803368  0.95219155  0.98638211     1.59600
O2465       O  0.77338684  0.00789541  0.95685532    -0.79000
O2466       O  0.70965459  0.67973663  0.00596354    -1.89500
Cd2467     Cd  0.69729470  0.72698329  0.99169243     1.59900
O2468       O  0.71414438  0.93593772  0.96220361    -0.78900
O2469       O  0.68874072  0.76389663  0.02432814    -0.77600
C2470       C  0.95502473  0.90608875  0.03859782     0.85000
C2471       C  0.79958836  0.68549600  0.04742447     0.84600
O2472       O  0.69248071  0.72879679  0.06004411    -0.76500
C2473       C  0.79754690  0.78993232  0.96970624     0.85400
O2474       O  0.98056465  0.94364877  0.05212383    -0.76600
C2475       C  0.74759582  0.96668267  0.94776243     0.85600
C2476       C  0.96359316  0.99109508  0.95151737     0.85900
O2477       O  0.96963100  0.95931923  0.95925531    -0.79000
N2478       N  0.95628915  0.90877517  0.74056656    -0.01500
C2479       C  0.95264759  0.86867071  0.74729530     0.01100
C2480       C  0.95327233  0.84390784  0.72461284    -0.21800
C2481       C  0.95529734  0.86854141  0.70328835    -0.22000
C2482       C  0.95404936  0.90677187  0.71352902     0.01000
H2483       H  0.94898704  0.80988505  0.72354463     0.14700
H2484       H  0.94893894  0.85513604  0.68293792     0.14800
N2485       N  0.76742316  0.65526427  0.76892604    -0.01500
C2486       C  0.77435903  0.95937449  0.75694166     0.01100
C2487       C  0.77060577  0.93283063  0.77810617    -0.21800
C2488       C  0.76952145  0.61014435  0.79991843    -0.22000
C2489       C  0.77567706  0.65284095  0.79477866     0.01000
H2490       H  0.77065527  0.90065685  0.77711878     0.14700
H2491       H  0.77861940  0.60048512  0.81781212     0.14800
N2492       N  0.69698381  0.74385716  0.74436151    -0.01500
C2493       C  0.66012052  0.74708517  0.75420732     0.01100
C2494       C  0.63349367  0.74608719  0.73405520    -0.21800
C2495       C  0.65784559  0.74835726  0.71079743    -0.22000
C2496       C  0.69848555  0.75072759  0.71777566     0.01000
H2497       H  0.60136268  0.74653119  0.73621984     0.14700
H2498       H  0.65065842  0.75590466  0.69156107     0.14800
C2499       C  0.72919077  0.66216061  0.76629979     0.82200
N2500       N  0.69375702  0.96047732  0.76089109    -0.76100
C2501       C  0.99088783  0.95102701  0.75271550     0.84600
N2502       N  0.98542713  0.65508099  0.74885562    -0.76100
C2503       C  0.69539945  0.70233087  0.75138357     0.84700
N2504       N  0.73459694  0.70239952  0.75762830    -0.77800
O2505       O  0.93361414  0.80814773  0.77483076    -0.76500
C2506       C  0.97161710  0.73966872  0.78195239     0.84500
O2507       O  0.81666797  0.69188548  0.83392041    -0.77700
O2508       O  0.95899245  0.72150248  0.85967689    -0.79100
O2509       O  0.00342239  0.88545884  0.85302240    -0.78900
O2510       O  0.94284999  0.87155593  0.79617097    -0.77600
Zn2511     Zn  0.90561868  0.75976682  0.80028178     1.55700
O2512       O  0.70083674  0.84596585  0.86053364    -0.79000
Cd2513     Cd  0.93828236  0.84796556  0.83629655     1.59700
Cd2514     Cd  0.87015902  0.74044635  0.85785110     1.59600
O2515       O  0.89460912  0.85251228  0.86755285    -0.79000
O2516       O  0.92402168  0.78335916  0.83472999    -1.89500
Cd2517     Cd  0.98087259  0.77954630  0.83772458     1.59900
O2518       O  0.85479799  0.78077121  0.88433751    -0.78900
O2519       O  0.67587630  0.77899579  0.79899823    -0.77600
C2520       C  0.81022841  0.69395634  0.80940011     0.85000
C2521       C  0.94346875  0.84964479  0.77448777     0.84600
O2522       O  0.92842832  0.71801480  0.78844525    -0.76500
C2523       C  0.70349074  0.88517609  0.86374381     0.85400
O2524       O  0.83831717  0.72863467  0.79573359    -0.76600
C2525       C  0.86888742  0.82408673  0.88597558     0.85600
C2526       C  0.92417647  0.69619811  0.87531087     0.85900
O2527       O  0.88906146  0.70140838  0.87882535    -0.79000
N2528       N  0.85186045  0.80400596  0.57470169    -0.01500
C2529       C  0.85748336  0.84548619  0.58229492     0.01100
C2530       C  0.85689087  0.86868725  0.56076752    -0.21800
C2531       C  0.84528722  0.83814292  0.53941231    -0.22000
C2532       C  0.83984972  0.79755369  0.54872397     0.01000
H2533       H  0.85950190  0.90181817  0.56117122     0.14700
H2534       H  0.83467918  0.84255976  0.52037756     0.14800
N2535       N  0.68292896  0.86470782  0.58687877    -0.01500
C2536       C  0.71638090  0.85805121  0.59556985     0.01100
C2537       C  0.74463472  0.85688131  0.57472510    -0.21800
C2538       C  0.73264719  0.86941787  0.55268093    -0.22000
C2539       C  0.69675939  0.87648558  0.56101701     0.01000
H2540       H  0.77427744  0.85282625  0.57620301     0.14700
H2541       H  0.75188144  0.87823465  0.53367477     0.14800
N2542       N  0.90837648  0.70203789  0.59123976    -0.01500
C2543       C  0.86868167  0.67217521  0.60502514     0.01100
C2544       C  0.83875124  0.97071180  0.58502968    -0.21800
C2545       C  0.86147304  0.97994296  0.56050759    -0.22000
C2546       C  0.90341931  0.68182444  0.56648458     0.01000
H2547       H  0.80499078  0.94140814  0.59013865     0.14700
H2548       H  0.84918241  0.95797490  0.54277227     0.14800
C2549       C  0.88837179  0.79717316  0.58264674     0.82200
N2550       N  0.88101668  0.75416316  0.58478101    -0.76100
C2551       C  0.91626866  0.74810830  0.59165838     0.84600
N2552       N  0.95914878  0.78554302  0.59585399    -0.76100
C2553       C  0.96752091  0.82938922  0.59303151     0.84700
N2554       N  0.93194088  0.83465036  0.58638067    -0.77800
O2555       O  0.88120795  0.89811019  0.71380550    -0.76500
C2556       C  0.78388306  0.94673534  0.72942206     0.84500
O2557       O  0.74525422  0.78312186  0.67860150    -0.77700
O2558       O  0.72638028  0.88778228  0.64109100    -0.79100
O2559       O  0.89237732  0.99835820  0.64555100    -0.78900
O2560       O  0.92808242  0.93120028  0.67796649    -0.77600
Zn2561     Zn  0.81956139  0.88623266  0.70649818     1.55700
O2562       O  0.82015505  0.98319884  0.64107103    -0.79000
Cd2563     Cd  0.88058354  0.93391021  0.65379638     1.57300
Cd2564     Cd  0.78961629  0.83664960  0.65381716     1.59600
O2565       O  0.87615470  0.90327859  0.61636243    -0.79000
O2566       O  0.81743542  0.89847732  0.67113287    -1.89500
Cd2567     Cd  0.78080048  0.93012526  0.66785626     1.59900
O2568       O  0.83637680  0.82962101  0.62816801    -0.78900
O2569       O  0.76821028  0.95184035  0.70777336    -0.77600
C2570       C  0.74126256  0.78582296  0.70387524     0.85000
C2571       C  0.92045285  0.91470429  0.70135613     0.84600
O2572       O  0.80625498  0.92581564  0.72925517    -0.76500
C2573       C  0.86186023  0.99888036  0.63181736     0.85400
O2574       O  0.76925413  0.82207668  0.71702087    -0.76600
C2575       C  0.85797110  0.86034738  0.61046117     0.85600
C2576       C  0.72886841  0.86005933  0.62335047     0.85900
O2577       O  0.75034422  0.83910850  0.62680631    -0.79000
N2578       N  0.87261459  0.88215079  0.42786195    -0.01500
C2579       C  0.86523214  0.84226140  0.41467621     0.01100
C2580       C  0.85976579  0.80959494  0.43233202    -0.21800
C2581       C  0.86980047  0.83097772  0.45676480    -0.22000
C2582       C  0.88119985  0.87615623  0.45314674     0.01000
H2583       H  0.85681816  0.77654296  0.42729131     0.14700
H2584       H  0.87566915  0.81730391  0.47418157     0.14800
N2585       N  0.71996376  0.79354448  0.41286550    -0.01500
C2586       C  0.71077784  0.78098753  0.38668892     0.01100
C2587       C  0.72113144  0.74714353  0.37893553    -0.21800
C2588       C  0.73228643  0.73473730  0.40138705    -0.22000
C2589       C  0.72810513  0.76110245  0.42192469     0.01000
H2590       H  0.05391170  0.73204702  0.36143825     0.14700
H2591       H  0.73737403  0.70590491  0.40314723     0.14800
N2592       N  0.78943354  0.95969139  0.40413815    -0.01500
C2593       C  0.75044357  0.95532987  0.41717258     0.01100
C2594       C  0.71504723  0.61753934  0.40042036    -0.21800
C2595       C  0.73817505  0.62756920  0.37620779    -0.22000
C2596       C  0.78162579  0.63314492  0.37972022     0.01000
H2597       H  0.68288634  0.61710984  0.40542176     0.14700
H2598       H  0.72789209  0.63834575  0.35924710     0.14800
C2599       C  0.79422277  0.92001330  0.40744608     0.82200
N2600       N  0.75472202  0.87673568  0.40694034    -0.76100
C2601       C  0.75254193  0.84151272  0.42014444     0.84600
N2602       N  0.79055726  0.85083491  0.43332745    -0.76100
C2603       C  0.83301498  0.88821955  0.42714430     0.84700
N2604       N  0.83510111  0.92481239  0.41517999    -0.77800
O2605       O  0.97298554  0.67815775  0.55973918    -0.76500
C2606       C  0.68838356  0.90743489  0.54603299     0.84500
O2607       O  0.80597600  0.74381667  0.51265020    -0.77700
O2608       O  0.70046213  0.93321244  0.45566524    -0.79100
O2609       O  0.93261288  0.95647054  0.46574026    -0.78900
O2610       O  0.94052474  0.68557710  0.52389926    -0.77600
Zn2611     Zn  0.69799851  0.67190125  0.54319914     1.55700
O2612       O  0.93011469  0.90195155  0.48966008    -0.79000
Cd2613     Cd  0.97721343  0.67492160  0.49154062     1.59700
Cd2614     Cd  0.75565313  0.69827960  0.48603625     1.59600
O2615       O  0.68226875  0.73244674  0.46216051    -0.79000
O2616       O  0.69314364  0.66482603  0.50479736    -1.89500
Cd2617     Cd  0.67081032  0.93221737  0.49316475     1.59900
O2618       O  0.75118961  0.73635485  0.45718441    -0.78900
O2619       O  0.68364575  0.89934363  0.52105241    -0.77600
C2620       C  0.80186414  0.75325820  0.53730763     0.85000
C2621       C  0.94216907  0.68373449  0.54922473     0.84600
O2622       O  0.69149561  0.94385507  0.55745126    -0.76500
C2623       C  0.91509371  0.91373501  0.47076584     0.85400
O2624       O  0.76356071  0.72942098  0.55104834    -0.76600
C2625       C  0.72127902  0.74539361  0.44948693     0.85600
C2626       C  0.74226569  0.95773891  0.44646405     0.85900
O2627       O  0.77017911  0.65488484  0.46066103    -0.79000
N2628       N  0.96408236  0.67687635  0.24801666    -0.01500
C2629       C  0.96264158  0.71451791  0.25773375     0.01100
C2630       C  0.96156404  0.74013351  0.23760998    -0.21800
C2631       C  0.95585790  0.04998312  0.20753796    -0.22000
C2632       C  0.95197403  0.01036199  0.21735943     0.01000
H2633       H  0.96027151  0.77160525  0.23973405     0.14700
H2634       H  0.95090777  0.05539060  0.18722573     0.14800
N2635       N  0.79184940  0.75296094  0.24545604    -0.01500
C2636       C  0.79290165  0.75353788  0.21836677     0.01100
C2637       C  0.82601224  0.74400988  0.20749319    -0.21800
C2638       C  0.84870834  0.74122168  0.22840500    -0.22000
C2639       C  0.82820281  0.74833100  0.25145158     0.01000
H2640       H  0.83794629  0.74691839  0.18677594     0.14700
H2641       H  0.87942438  0.73832579  0.22676123     0.14800
N2642       N  0.71425008  0.94155858  0.26785425    -0.01500
C2643       C  0.75635860  0.95017183  0.25710519     0.01100
C2644       C  0.78549431  0.95531136  0.27726476    -0.21800
C2645       C  0.75918429  0.94383891  0.30053948    -0.22000
C2646       C  0.71515352  0.93275722  0.29382763     0.01000
H2647       H  0.81945882  0.95863205  0.27464392     0.14700
H2648       H  0.76880961  0.93631588  0.31898490     0.14800
C2649       C  0.66763721  0.68309137  0.25074869     0.82200
N2650       N  0.70922159  0.72440789  0.24996788    -0.76100
C2651       C  0.74775676  0.72787792  0.25989711     0.84600
N2652       N  0.74135552  0.69191151  0.27378654    -0.76100
C2653       C  0.70579388  0.97869022  0.26572749     0.84700
N2654       N  0.66515368  0.97255986  0.25697243    -0.77800
O2655       O  0.77871404  0.90504885  0.23169148    -0.76500
C2656       C  0.78777988  0.78801255  0.20512883     0.84500
O2657       O  0.92175564  0.96197096  0.17920800    -0.77700
O2658       O  0.80358653  0.83096326  0.11878268    -0.79100
O2659       O  0.72253560  0.88774360  0.14236150    -0.78900
O2660       O  0.76051904  0.94739241  0.20796700    -0.77600
Zn2661     Zn  0.81726754  0.88865537  0.20872530     1.55700
O2662       O  0.70759781  0.81636657  0.14814147    -0.79000
Cd2663     Cd  0.77669008  0.92781724  0.16849036     1.59700
Cd2664     Cd  0.86916264  0.91712801  0.15486484     1.59600
O2665       O  0.81964311  0.98090370  0.14116002    -0.79000
O2666       O  0.80699807  0.89033439  0.17279733    -1.89500
Cd2667     Cd  0.77205131  0.82760689  0.15613378     1.59900
O2668       O  0.86719348  0.95541178  0.12682643    -0.78900
O2669       O  0.77337328  0.78084374  0.18133787    -0.77600
C2670       C  0.91837140  0.96658880  0.20438053     0.85000
C2671       C  0.76373093  0.93265575  0.23049037     0.84600
O2672       O  0.80375756  0.82690930  0.21734064    -0.76500
C2673       C  0.70775592  0.84630541  0.13360002     0.85400
O2674       O  0.88219712  0.93844130  0.21802319    -0.76600
C2675       C  0.84702903  0.97763977  0.12332541     0.85600
C2676       C  0.84686198  0.84872464  0.11271831     0.85900
O2677       O  0.87758356  0.87065993  0.13018553    -0.79000
O2678       O  0.98390551  0.77084510  0.29187273    -0.76500
C2679       C  0.84981280  0.75805023  0.27780651     0.84500
O2680       O  0.67537689  0.88982804  0.33250773    -0.77700
O2681       O  0.85269036  0.81175843  0.37009473    -0.79100
O2682       O  0.86173465  0.67358616  0.36245133    -0.78900
O2683       O  0.93216830  0.69931080  0.30295617    -0.77600
Zn2684     Zn  0.94132059  0.79386198  0.30119166     1.55700
O2685       O  0.81615340  0.70229712  0.35556410    -0.79000
Cd2686     Cd  0.92251412  0.72317918  0.34127835     1.59700
Cd2687     Cd  0.96501842  0.83557017  0.35724805     1.59600
O2688       O  0.98117333  0.74548035  0.36256876    -0.79000
O2689       O  0.91985240  0.78020086  0.33652363    -1.89500
Cd2690     Cd  0.85543744  0.76756458  0.33907520     1.59900
O2691       O  0.66908937  0.81798536  0.37656174    -0.78900
O2692       O  0.83140261  0.76429235  0.29966096    -0.77600
C2693       C  0.00809083  0.89123384  0.30625335     0.85000
C2694       C  0.96171092  0.72796931  0.28600994     0.84600
O2695       O  0.88984449  0.76263974  0.27718514    -0.76500
C2696       C  0.82229342  0.67124756  0.36494430     0.85400
O2697       O  0.97468165  0.85989516  0.29312840    -0.76600
C2698       C  0.67462260  0.78338317  0.37267866     0.85600
C2699       C  0.88257409  0.83841482  0.38738429     0.85900
O2700       O  0.92610376  0.85220485  0.38455854    -0.79000
loop_ 
_geom_bond_atom_site_label_1 
_geom_bond_atom_site_label_2 
_geom_bond_distance 
_geom_bond_site_symmetry_2 
_ccdc_geom_bond_type 
N1            C5   1.367       .  A
N1            C2   1.358       .  A
N1         C1826   1.435   1_455  S
C2            C3   1.376       .  A
C2          C273   1.486       .  S
C3            C4   1.372       .  A
C3            H6   1.075       .  S
C4            C5   1.382       .  A
C4            H7   1.083       .  S
C5           C56   1.501       .  S
N8           C12   1.362       .  A
N8            C9   1.345       .  A
N8           C22   1.436       .  S
C9           C10   1.372       .  A
C9          C276   1.471       .  S
C10          C11   1.372       .  A
C10          H13   1.070       .  S
C11          C12   1.385       .  A
C11          H14   1.083       .  S
C12          C70   1.488       .  S
N15          C19   1.359       .  A
N15         C616   1.349   1_545  A
N15          C24   1.438       .  S
C16         N315   1.359       .  A
C16          C17   1.382       .  A
C16         C275   1.484       .  S
C17          C18   1.360       .  A
C17          H20   1.076       .  S
C18         C319   1.377       .  A
C18          H21   1.083       .  S
C19         C618   1.379   1_545  A
C19          C71   1.469       .  S
C22          N23   1.366       .  A
C22          N27   1.347       .  A
N23          C24   1.355       .  A
C24          N25   1.364       .  A
N25          C26   1.351       .  A
C26          N27   1.363       .  A
C26         N901   1.430       .  S
N28          C29   1.356       .  A
N28         C332   1.361       .  A
N28          C44   1.446       .  S
C29         C330   1.373       .  A
C29          C76   1.465       .  S
C30          C31   1.356       .  A
C30         C629   1.371       .  A
C30          H33   1.074       .  S
C31          C32   1.385       .  A
C31          H34   1.083   1_565  S
C32         N628   1.363       .  A
C32         C126   1.469   1_565  S
N35          C39   1.366       .  A
N35          C36   1.371       .  A
N35          C46   1.444       .  S
C36          C37   1.381       .  A
C36         C125   1.479       .  S
C37          C38   1.361       .  A
C37          H40   1.083       .  S
C38          C39   1.386       .  A
C38          H41   1.083       .  S
C39          C73   1.480       .  S
C42          N43   1.371       .  A
C42          N47   1.370       .  A
C42          N48   1.445       .  S
N43          C44   1.357       .  A
C44          N45   1.350       .  A
N45          C46   1.356       .  A
C46          N47   1.368       .  A
N48          C52   1.374       .  A
N48          C49   1.367       .  A
C49          C50   1.375       .  A
C49          C75   1.489       .  S
C50          C51   1.361       .  A
C50          H53   1.083       .  S
C51          C52   1.387       .  A
C51        H1854   1.083       .  S
C52         C123   1.499       .  S
H54         C951   1.082       .  S
O55          C71   1.284       .  A
O55         Zn61   2.083       .  S
C56          O72   1.287       .  A
C56          O69   1.282       .  A
O57          C70   1.278       .  A
O57         Cd64   2.082   1_554  S
O58         C676   1.279   1_545  A
O58        Cd967   2.093       .  S
O59          C73   1.271       .  A
O59         Cd63   2.034       .  S
O60          C71   1.273       .  A
O60         Cd63   2.038   1_554  S
Zn61         O72   2.113       .  S
Zn61       O2474   2.107   1_445  S
Zn61         O66   1.947       .  S
O62          C73   1.276       .  A
O62         Cd67   2.117       .  S
Cd63        O665   2.081       .  S
Cd63         O66   1.960   1_556  S
Cd64         O77   2.032       .  S
Cd64        O968   2.109       .  S
Cd64       O1266   1.994   1_556  S
O65          C75   1.274       .  A
O65        Cd363   2.076       .  S
O66         Cd67   2.010   1_554  S
O66       Cd2464   2.002   1_544  S
Cd67         O69   2.108   1_556  S
Cd67       O1858   2.094   1_455  S
O68          C75   1.279       .  A
O68       Cd1864   2.118       .  S
C70          O74   1.288       .  A
O74       Zn1261   2.104       .  S
C76          O77   1.270       .  A
C76         O358   1.280       .  A
N78          C82   1.361       .  A
N78          C79   1.346       .  A
N78         C101   1.433       .  S
C79          C80   1.381       .  A
C79         C121   1.472       .  S
C80          C81   1.367       .  A
C80          H83   1.077       .  S
C81          C82   1.381       .  A
C81          H84   1.083       .  S
C82         C171   1.455       .  S
N85          C89   1.367       .  A
N85         C686   1.365       .  A
N85          C99   1.426       .  S
C86         N385   1.360       .  A
C86          C87   1.383       .  A
C86         C156   1.490       .  S
C87         C388   1.363       .  A
C87          H90   1.083       .  S
C88          C89   1.382       .  A
C88         C687   1.357       .  A
C88          H91   1.082       .  S
C89         C120   1.468   1_565  S
N92          C96   1.363       .  A
N92          C93   1.357   1_455  A
N92         C103   1.432       .  S
C93          C94   1.378       .  A
C93        C1906   1.480       .  S
C94          C95   1.366       .  A
C94          H97   1.080       .  S
C95          C96   1.385   1_655  A
C95          H98   1.083       .  S
C96         C170   1.470       .  S
C99         N104   1.364   1_565  A
C99         N700   1.348       .  A
N100        C399   1.344       .  A
N100       C1901   1.337   1_455  A
C101       N1000   1.345       .  A
C101        N402   1.348       .  A
N102        C701   1.352       .  A
N102       C1003   1.368   1_565  A
C103        N104   1.367       .  A
C103       N1902   1.365   1_445  A
O105        C121   1.258       .  A
O105       Zn111   1.894       .  S
C106        C993   1.482       .  S
C106        O122   1.269       .  A
C106       O1019   1.282       .  A
O107        C120   1.278       .  A
O107       Cd114   2.085       .  S
O108        C126   1.279       .  A
O108       Cd117   2.048       .  S
O109       C1023   1.278       .  A
O109       Cd113   2.066       .  S
O110        C121   1.287       .  A
O110       Cd113   2.146       .  S
Zn111       O122   1.974       .  S
Zn111       O124   1.969       .  S
Zn111       O116   1.875       .  S
O112        C123   1.281       .  A
O112      Cd1917   2.122   1_455  S
Cd113       O115   2.124       .  S
Cd113       O116   1.965       .  S
Cd114       O118   2.075       .  S
Cd114       O127   2.081       .  S
Cd114       O116   1.969       .  S
O115        C125   1.286       .  A
O116       Cd117   1.985       .  S
Cd117      O1012   2.137       .  S
Cd117      O1019   2.135       .  S
O118        C125   1.279       .  A
O119       C1906   1.281   1_455  A
O119      Cd1917   2.137   1_455  S
C120        O124   1.262       .  A
C123       O1909   1.285       .  A
C126        O127   1.276       .  A
N128        C132   1.362       .  A
N128        C129   1.345       .  A
N128        C149   1.434       .  S
C129        C130   1.372       .  A
C129        C175   1.470       .  S
C130        C131   1.371       .  A
C130        H133   1.072       .  S
C131        C132   1.385       .  A
C131        H134   1.083       .  S
C132        C220   1.483       .  S
N135        C139   1.364       .  A
N135        C136   1.355       .  A
N135       C1953   1.443   1_455  S
C136        C137   1.381       .  A
C136        C176   1.477       .  S
C137        C138   1.357       .  A
C137        H140   1.076       .  S
C138        C139   1.376       .  A
C138        H141   1.083       .  S
C139        C206   1.470       .  S
N142        C146   1.365       .  A
N142        C143   1.356       .  A
N142        C151   1.431       .  S
C143        C744   1.375   1_545  A
C143        C773   1.482   1_545  S
C144        C145   1.370       .  A
C144        C443   1.376       .  A
C144        H147   1.075       .  S
C145        C446   1.380       .  A
C145        H148   1.083       .  S
C146        C745   1.380   1_545  A
C146        C221   1.488       .  S
C149        N150   1.347       .  A
C149        N154   1.364       .  A
N150        C151   1.363       .  A
C151        N152   1.353       .  A
N152        C153   1.366       .  A
C153        N154   1.354       .  A
C153       N1035   1.439       .  S
O155        C171   1.269       .  A
O155       Zn161   1.951       .  S
C156        O172   1.264       .  A
C156        O169   1.293       .  A
O157        C170   1.274       .  A
O157       Cd164   2.063       .  S
O158        C176   1.287       .  A
O158       Cd167   2.144       .  S
O159        C173   1.274       .  A
O159       Cd163   2.063       .  S
O160        C171   1.279       .  A
O160       Cd163   2.091       .  S
Zn161       O172   1.919       .  S
Zn161       O174   2.009       .  S
Zn161       O166   1.878       .  S
O162        C173   1.279       .  A
O162       Cd167   2.097       .  S
Cd163       O165   2.060       .  S
Cd163       O166   1.993       .  S
Cd164       O168   2.064       .  S
Cd164       O177   1.993       .  S
Cd164       O166   1.962       .  S
O165        C175   1.271       .  A
O166       Cd167   2.011       .  S
Cd167       O169   2.189       .  S
O168        C175   1.277       .  A
C170        O174   1.269       .  A
C173        C443   1.485       .  S
C176        O177   1.265       .  A
N178        C182   1.371       .  A
N178        C179   1.377       .  A
N178        C203   1.450       .  S
C179        C180   1.379       .  A
C179        C299   1.481       .  S
C180        C181   1.356       .  A
C180        H183   1.083       .  S
C181        C182   1.386       .  A
C181        H184   1.083       .  S
C182        C223   1.486       .  S
N185        C189   1.358       .  A
N185        C186   1.361       .  A
N185        C201   1.448       .  S
C186        C187   1.384       .  A
C186        C298   1.468       .  S
C187        C188   1.361       .  A
C187       H1990   1.083       .  S
C188        C189   1.376       .  A
C188        H191   1.079       .  S
C189        C225   1.470       .  S
H190       C1087   1.083       .  S
N192        C193   1.365       .  A
N192        C496   1.372       .  A
N192        C199   1.450       .  S
C193        C494   1.377       .  A
C193        C226   1.482       .  S
C194        C195   1.360       .  A
C194        C793   1.375       .  A
C194        H197   1.083       .  S
C195        C196   1.388       .  A
C195        H198   1.083       .  S
C196        N792   1.369       .  A
C196        C296   1.487   1_565  S
C199        N200   1.371       .  A
C199        N204   1.375       .  A
N200        C201   1.357       .  A
C201        N202   1.348       .  A
N202        C203   1.356       .  A
C203        N204   1.371       .  A
O205        C221   1.285       .  A
O205      Zn1111   2.081       .  S
C206        O222   1.283       .  A
C206        O219   1.273       .  A
O207        C220   1.279       .  A
O207       Cd214   2.085       .  S
O208        C226   1.275       .  A
O208       Cd217   2.072   1_455  S
O209        C223   1.276       .  A
O209       Cd513   2.128       .  S
O210        C221   1.284       .  A
O210       Cd213   2.104       .  S
Zn211       O224   2.080       .  S
Zn211      O2005   2.071   1_455  S
Zn211       O822   2.083   1_545  S
Zn211       O216   1.932   1_545  S
O212        C223   1.272       .  A
O212      Cd1117   2.039       .  S
Cd213       O809   2.135   1_545  S
Cd213      O1115   2.096       .  S
Cd213      O1116   2.009   1_545  S
Cd214       O218   2.044       .  S
Cd214       O227   2.097   1_545  S
Cd214       O216   1.991   1_545  S
O215        C225   1.281       .  A
O215      Cd2013   2.105   1_455  S
O216      Cd2013   2.007   1_465  S
O216       Cd817   1.950       .  S
Cd217       O219   2.032   1_655  S
Cd217      O2012   2.032       .  S
Cd217       O516   1.945   1_655  S
O218        C225   1.271       .  A
C220        O224   1.285       .  A
O222       Zn511   2.086       .  S
C226        O527   1.277       .  A
O227        C826   1.277       .  A
N228        C229   1.357       .  A
N228        C832   1.360       .  A
N228       C1149   1.437       .  S
C229        C230   1.375       .  A
C229        C294   1.473       .  S
C230        C831   1.364       .  A
C230        H233   1.082       .  S
C231        C232   1.380       .  A
C231        C530   1.370       .  A
C231        H234   1.083       .  S
C232        N528   1.351       .  A
C232        C270   1.456       .  S
N235        C239   1.347       .  A
N235        C236   1.365       .  A
N235        C251   1.433       .  S
C236        C237   1.381       .  A
C236        C256   1.462       .  S
C237        C238   1.368       .  A
C237        H240   1.083       .  S
C238        C239   1.380       .  A
C238        H241   1.076       .  S
C239        C279   1.476       .  S
N242        C246   1.365       .  A
N242        C243   1.363       .  A
N242        C253   1.429       .  S
C243        C244   1.385       .  A
C243        C271   1.499       .  S
C244        C245   1.364       .  A
C244        H247   1.082       .  S
C245        C246   1.383       .  A
C245        H248   1.083       .  S
C246       C2093   1.469       .  S
C249        N250   1.363   1_655  A
C249        N854   1.370   1_545  A
C249       N2028   1.430       .  S
N250        C251   1.344       .  A
C251        N252   1.345       .  A
N252        C853   1.355   1_545  A
C253        N254   1.368       .  A
C253        N552   1.351       .  A
N254        C549   1.368       .  A
O255        C271   1.268       .  A
O255       Zn261   1.942       .  S
C256        O272   1.265       .  A
C256        O269   1.280       .  A
O257        C270   1.268       .  A
O257       Cd264   2.065       .  S
O258        C276   1.272       .  A
O258       Cd267   2.067       .  S
O259        C273   1.280       .  A
O259       Cd263   2.100       .  S
O260        C271   1.295       .  A
O260       Cd263   2.208       .  S
Zn261       O272   1.946       .  S
Zn261       O274   2.006       .  S
Zn261       O266   1.884       .  S
O262        C273   1.273       .  A
O262       Cd267   2.055       .  S
Cd263       O265   2.154       .  S
Cd263       O266   2.016       .  S
Cd264       O268   2.003       .  S
Cd264       O277   2.063       .  S
Cd264       O266   1.996       .  S
O265        C275   1.288       .  A
O266       Cd267   1.987       .  S
Cd267       O269   2.100       .  S
O268        C275   1.267       .  A
C270        O274   1.266       .  A
C276        O277   1.277       .  A
O278        C294   1.265       .  A
O278       Zn284   1.965       .  S
C279        O295   1.261       .  A
C279        O292   1.286       .  A
O280       C2093   1.277       .  A
O280      Cd2087   2.087   1_455  S
O281        C299   1.287       .  A
O281       Cd290   2.126       .  S
O282        C296   1.277       .  A
O282       Cd286   2.105       .  S
O283        C294   1.276       .  A
O283       Cd286   2.108       .  S
Zn284       O295   1.926       .  S
Zn284       O297   1.962       .  S
Zn284       O289   1.877       .  S
O285        C296   1.281       .  A
O285       Cd290   2.077       .  S
Cd286       O288   2.045       .  S
Cd286       O289   1.991       .  S
Cd287       O300   2.087       .  S
Cd287      O1180   2.087       .  S
Cd287      O1191   2.085       .  S
Cd287       O289   1.977       .  S
O288       C1198   1.278       .  A
O289       Cd290   1.966       .  S
Cd290       O292   2.143       .  S
O291        C298   1.274       .  A
O291      Cd2087   2.070   1_455  S
C293       C1146   1.464       .  S
C293        O297   1.264       .  A
C293       O1180   1.276       .  A
C298       O2088   1.279   1_455  A
C299        O300   1.281       .  A
N301        C305   1.362       .  A
N301        C302   1.352       .  A
N301       C2126   1.430   1_455  S
C302        C303   1.376       .  A
C302        C573   1.482       .  S
C303        C304   1.376       .  A
C303        H306   1.075       .  S
C304        C305   1.384       .  A
C304        H307   1.083       .  S
C305        C356   1.497       .  S
N308        C312   1.363       .  A
N308        C309   1.344       .  A
N308        C322   1.439       .  S
C309        C310   1.371       .  A
C309        C576   1.468       .  S
C310        C311   1.369       .  A
C310        H313   1.068       .  S
C311        C312   1.385       .  A
C311        H314   1.083       .  S
C312        C370   1.487       .  S
N315        C319   1.365       .  A
N315        C324   1.443       .  S
C316        N615   1.359       .  A
C316        C317   1.383       .  A
C316        C575   1.481       .  S
C317        C318   1.361       .  A
C317        H320   1.080       .  S
C318        C619   1.378       .  A
C318        H321   1.083       .  S
C319        C371   1.473       .  S
C322        N323   1.368       .  A
C322        N327   1.343       .  A
N323        C324   1.361       .  A
C324        N325   1.366       .  A
N325        C326   1.354       .  A
C326        N327   1.360       .  A
C326       N1201   1.429       .  S
N328        C632   1.359       .  A
N328        C329   1.355       .  A
N328        C344   1.445       .  S
C329        C630   1.375       .  A
C329        C376   1.463       .  S
C330        C331   1.357       .  A
C330        H333   1.074       .  S
C331        C332   1.385       .  A
C331        H334   1.083       .  S
C332        C426   1.466       .  S
N335        C339   1.369       .  A
N335        C336   1.377       .  A
N335        C346   1.448       .  S
C336        C337   1.383       .  A
C336        C425   1.484       .  S
C337        C338   1.359       .  A
C337        H340   1.083       .  S
C338        C339   1.382       .  A
C338        H341   1.083       .  S
C339        C373   1.483       .  S
C342        N343   1.369       .  A
C342        N347   1.373       .  A
C342        N348   1.447       .  S
N343        C344   1.354       .  A
C344        N345   1.350       .  A
N345        C346   1.357       .  A
C346        N347   1.371       .  A
N348        C352   1.374       .  A
N348        C349   1.369       .  A
C349        C350   1.376       .  A
C349        C375   1.492       .  S
C350        C351   1.362       .  A
C350        H353   1.083       .  S
C351        C352   1.387       .  A
C351       H2154   1.083       .  S
C352        C423   1.499       .  S
H354       C1251   1.083       .  S
O355        C371   1.283       .  A
O355       Zn361   2.081       .  S
C356        O372   1.287       .  A
C356        O369   1.283       .  A
O357        C370   1.277       .  A
O357       Cd364   2.071   1_554  S
O358      Cd1267   2.100       .  S
O359        C373   1.274       .  A
O359       Cd363   2.048       .  S
O360        C371   1.276       .  A
O360       Cd363   2.053   1_554  S
Zn361       O372   2.101       .  S
Zn361      O1874   2.105   1_455  S
Zn361       O366   1.948       .  S
O362        C373   1.276       .  A
O362       Cd367   2.117       .  S
Cd363       O366   1.962   1_556  S
Cd364      O1268   2.102       .  S
Cd364       O377   2.031       .  S
Cd364      O1566   1.999   1_556  S
O365        C375   1.276       .  A
O365       Cd663   2.084       .  S
O366      Cd1864   2.003   1_554  S
O366       Cd367   2.014   1_554  S
Cd367      O2158   2.101   1_455  S
Cd367       O369   2.109   1_556  S
O368        C375   1.279       .  A
O368      Cd2164   2.115       .  S
C370        O374   1.289       .  A
O374      Zn1561   2.113       .  S
C376        O658   1.281       .  A
C376        O377   1.269       .  A
N378        C382   1.359       .  A
N378        C379   1.348       .  A
N378        C401   1.429       .  S
C379        C380   1.381       .  A
C379        C421   1.480       .  S
C380        C381   1.367       .  A
C380        H383   1.075       .  S
C381        C382   1.381       .  A
C381        H384   1.083       .  S
C382        C471   1.449       .  S
N385        C389   1.362       .  A
N385        C399   1.426       .  S
C386        N685   1.366       .  A
C386        C387   1.385       .  A
C386        C456   1.493       .  S
C387        C688   1.360       .  A
C387        H390   1.083       .  S
C388        C389   1.384       .  A
C388        H391   1.082       .  S
C389        C420   1.461       .  S
N392        C396   1.366       .  A
N392        C393   1.360   1_455  A
N392        C403   1.436       .  S
C393        C394   1.377       .  A
C393       C2206   1.480       .  S
C394        C395   1.363       .  A
C394        H397   1.081       .  S
C395        C396   1.384   1_655  A
C395        H398   1.083       .  S
C396        C470   1.471       .  S
C399        N404   1.366       .  A
N400        C699   1.347       .  A
N400       C2201   1.338   1_455  A
C401       N1300   1.340       .  A
C401        N702   1.350       .  A
N402       C1303   1.365       .  A
C403       N2202   1.367   1_455  A
C403        N404   1.369       .  A
O405        C421   1.260       .  A
O405       Zn411   1.912       .  S
C406       C1293   1.478       .  S
C406        O422   1.266       .  A
C406       O1319   1.280       .  A
O407        C420   1.276       .  A
O407       Cd414   2.078       .  S
O408        C426   1.278       .  A
O408       Cd417   2.043       .  S
O409       C1323   1.282       .  A
O409       Cd413   2.082       .  S
O410        C421   1.289       .  A
O410       Cd413   2.158       .  S
Zn411       O422   1.971       .  S
Zn411       O424   1.954       .  S
Zn411       O416   1.877       .  S
O412        C423   1.280       .  A
O412      Cd2217   2.124   1_455  S
Cd413       O415   2.136       .  S
Cd413       O416   1.965       .  S
Cd414       O418   2.076       .  S
Cd414       O427   2.073       .  S
Cd414       O416   1.974       .  S
O415        C425   1.288       .  A
O416       Cd417   1.988       .  S
Cd417      O1312   2.125       .  S
Cd417      O1319   2.124       .  S
O418        C425   1.279       .  A
O419       C2206   1.280   1_455  A
O419      Cd2217   2.137   1_455  S
C420        O424   1.263       .  A
C423       O2209   1.284       .  A
C426        O427   1.275       .  A
N428        C432   1.363       .  A
N428        C429   1.347       .  A
N428        C449   1.438       .  S
C429        C430   1.374       .  A
C429        C475   1.471       .  S
C430        C431   1.370       .  A
C430        H433   1.075       .  S
C431        C432   1.385       .  A
C431        H434   1.083       .  S
C432        C520   1.485       .  S
N435        C439   1.362       .  A
N435        C436   1.352       .  A
N435       C2253   1.438   1_455  S
C436        C437   1.382       .  A
C436        C476   1.475       .  S
C437        C438   1.362       .  A
C437        H440   1.077       .  S
C438        C439   1.378       .  A
C438        H441   1.083       .  S
C439        C506   1.471       .  S
N442        C446   1.367       .  A
N442        C443   1.359       .  A
N442        C451   1.434       .  S
C444        C743   1.375       .  A
C444        C445   1.370       .  A
C444        H447   1.074       .  S
C445        C746   1.381       .  A
C445        H448   1.083       .  S
C446        C521   1.492       .  S
C449        N450   1.349       .  A
C449        N454   1.365       .  A
N450        C451   1.364       .  A
C451        N452   1.354       .  A
N452        C453   1.366       .  A
C453        N454   1.354       .  A
C453       N1335   1.440       .  S
O455        C471   1.268       .  A
O455       Zn461   1.935       .  S
C456        O472   1.265       .  A
C456        O469   1.293       .  A
O457        C470   1.275       .  A
O457       Cd464   2.070       .  S
O458        C476   1.287       .  A
O458       Cd467   2.132       .  S
O459        C473   1.272       .  A
O459       Cd463   2.054       .  S
O460        C471   1.277       .  A
O460       Cd463   2.080       .  S
Zn461       O472   1.922       .  S
Zn461       O474   2.014       .  S
Zn461       O466   1.864       .  S
O462        C473   1.278       .  A
O462       Cd467   2.095       .  S
Cd463       O465   2.059       .  S
Cd463       O466   1.988       .  S
Cd464       O468   2.071       .  S
Cd464       O477   1.999       .  S
Cd464       O466   1.969       .  S
O465        C475   1.271       .  A
O466       Cd467   2.007       .  S
Cd467       O469   2.197       .  S
O468        C475   1.278       .  A
C470        O474   1.270       .  A
C473        C743   1.482       .  S
C476        O477   1.266       .  A
N478        C482   1.368       .  A
N478        C479   1.379       .  A
N478        C503   1.448       .  S
C479        C480   1.382       .  A
C479        C599   1.484       .  S
C480        C481   1.357       .  A
C480        H483   1.083       .  S
C481        C482   1.383       .  A
C481        H484   1.083       .  S
C482        C523   1.481       .  S
N485        C489   1.357       .  A
N485        C486   1.360       .  A
N485        C501   1.446       .  S
C486        C487   1.384       .  A
C486        C598   1.468       .  S
C487        C488   1.360       .  A
C487       H2290   1.083       .  S
C488        C489   1.374       .  A
C488        H491   1.075       .  S
C489        C525   1.468       .  S
H490       C1387   1.083       .  S
N492        C796   1.371       .  A
N492        C493   1.365       .  A
N492        C499   1.448       .  S
C493        C794   1.377       .  A
C493        C526   1.481       .  S
C494        C495   1.363       .  A
C494        H497   1.083       .  S
C495        C496   1.385       .  A
C495        H498   1.083       .  S
C496        C596   1.494       .  S
C499        N500   1.370       .  A
C499        N504   1.374       .  A
N500        C501   1.355       .  A
C501        N502   1.349       .  A
N502        C503   1.355       .  A
C503        N504   1.371       .  A
O505        C521   1.285       .  A
O505      Zn1411   2.085       .  S
C506        O522   1.283       .  A
C506        O519   1.274       .  A
O507        C520   1.279       .  A
O507       Cd514   2.082       .  S
O508        C526   1.273       .  A
O508       Cd517   2.067   1_455  S
O509        C523   1.275       .  A
O509       Cd813   2.125       .  S
O510        C521   1.284       .  A
O510       Cd513   2.111       .  S
Zn511      O2305   2.091   1_455  S
Zn511       O524   2.092       .  S
Zn511       O516   1.927       .  S
O512        C523   1.269       .  A
O512      Cd1417   2.034       .  S
Cd513      O1415   2.098       .  S
Cd513      O1416   2.010       .  S
Cd514       O518   2.041       .  S
Cd514       O527   2.098       .  S
Cd514       O516   1.986       .  S
O515        C525   1.281       .  A
O515      Cd2313   2.102   1_455  S
O516      Cd2313   2.005   1_455  S
Cd517      O2312   2.045       .  S
Cd517       O519   2.044   1_655  S
Cd517       O816   1.953   1_655  S
O518        C525   1.271       .  A
C520        O524   1.287       .  A
O522       Zn811   2.083       .  S
C526        O827   1.277       .  A
N528        C529   1.353       .  A
N528       C1449   1.429       .  S
C529        C530   1.379       .  A
C529        C594   1.464       .  S
C530        H533   1.081       .  S
C531        C830   1.365       .  A
C531        C532   1.378       .  A
C531        H534   1.082       .  S
C532        N828   1.358       .  A
C532        C570   1.464       .  S
N535        C539   1.353       .  A
N535        C536   1.358       .  A
N535        C551   1.426       .  S
C536        C537   1.379       .  A
C536        C556   1.458       .  S
C537        C538   1.369       .  A
C537        H540   1.083       .  S
C538        C539   1.387       .  A
C538        H541   1.083       .  S
C539        C579   1.486       .  S
N542        C546   1.366       .  A
N542        C543   1.365       .  A
N542        C553   1.430       .  S
C543        C544   1.383       .  A
C543        C571   1.495       .  S
C544        C545   1.362       .  A
C544        H547   1.082       .  S
C545        C546   1.383       .  A
C545        H548   1.083       .  S
C546       C2393   1.469       .  S
C549        N550   1.366       .  A
C549       N2328   1.441   1_455  S
N550        C551   1.350       .  A
C551        N552   1.341       .  A
C553        N852   1.350       .  A
C553        N554   1.367       .  A
N554        C849   1.368       .  A
O555        C571   1.266       .  A
O555       Zn561   1.936       .  S
C556        O572   1.258       .  A
C556        O569   1.273       .  A
O557        C570   1.272       .  A
O557       Cd564   2.077       .  S
O558        C576   1.269       .  A
O558       Cd567   2.051       .  S
O559        C573   1.278       .  A
O559       Cd563   2.094       .  S
O560        C571   1.293       .  A
O560       Cd563   2.203       .  S
Zn561       O572   1.980       .  S
Zn561       O574   2.045       .  S
Zn561       O566   1.888       .  S
O562        C573   1.274       .  A
O562       Cd567   2.044       .  S
Cd563       O565   2.138       .  S
Cd563       O566   2.015       .  S
Cd564       O568   2.020       .  S
Cd564       O577   2.077       .  S
Cd564       O566   1.986       .  S
O565        C575   1.287       .  A
O566       Cd567   2.000       .  S
Cd567       O569   2.090       .  S
O568        C575   1.270       .  A
C570        O574   1.277       .  A
C576        O577   1.279       .  A
O578        C594   1.264       .  A
O578       Zn584   1.987       .  S
C579        O595   1.263       .  A
C579        O592   1.289       .  A
O580       C2393   1.278       .  A
O580      Cd2387   2.086   1_455  S
O581        C599   1.289       .  A
O581       Cd590   2.145       .  S
O582        C596   1.274       .  A
O582       Cd586   2.087       .  S
O583        C594   1.273       .  A
O583       Cd586   2.086       .  S
Zn584       O595   1.920       .  S
Zn584       O597   1.950       .  S
Zn584       O589   1.903       .  S
O585        C596   1.287       .  A
O585       Cd590   2.121       .  S
Cd586       O588   2.049       .  S
Cd586       O589   1.973       .  S
Cd587      O1480   2.095       .  S
Cd587      O1491   2.082       .  S
Cd587       O600   2.074       .  S
Cd587       O589   1.983       .  S
O588       C1498   1.280       .  A
O589       Cd590   1.985       .  S
Cd590       O592   2.170       .  S
O591        C598   1.276       .  A
O591      Cd2387   2.082   1_455  S
C593       C1446   1.461       .  S
C593       O1480   1.275       .  A
C593        O597   1.263       .  A
C598       O2388   1.277   1_455  A
C599        O600   1.279       .  A
N601        C605   1.361       .  A
N601        C602   1.354       .  A
N601       C2426   1.428   1_455  S
C602        C603   1.376       .  A
C602        C873   1.479       .  S
C603        C604   1.373       .  A
C603        H606   1.076       .  S
C604        C605   1.383       .  A
C604        H607   1.083       .  S
C605        C656   1.490       .  S
N608        C612   1.366       .  A
N608        C609   1.351       .  A
N608        C622   1.443       .  S
C609        C610   1.373       .  A
C609        C876   1.476       .  S
C610        C611   1.369       .  A
C610        H613   1.070       .  S
C611        C612   1.384       .  A
C611        H614   1.083       .  S
C612        C670   1.494       .  S
N615        C619   1.366       .  A
N615        C624   1.442       .  S
C616        C617   1.380       .  A
C616        C875   1.471       .  S
C617        C618   1.364       .  A
C617        H620   1.076       .  S
C618        H621   1.083       .  S
C619        C671   1.478       .  S
C622        N623   1.370       .  A
C622        N627   1.349       .  A
N623        C624   1.359       .  A
C624        N625   1.364       .  A
N625        C626   1.351       .  A
C626        N627   1.363       .  A
C626       N1501   1.431       .  S
N628        C629   1.357       .  A
N628        C644   1.447       .  S
C629        C676   1.464       .  S
C630        C631   1.359       .  A
C630        H633   1.076       .  S
C631        C632   1.384       .  A
C631        H634   1.083       .  S
C632        C726   1.464       .  S
N635        C639   1.369       .  A
N635        C636   1.374       .  A
N635        C646   1.445       .  S
C636        C637   1.380       .  A
C636        C725   1.478       .  S
C637        C638   1.358       .  A
C637        H640   1.083       .  S
C638        C639   1.384       .  A
C638        H641   1.083       .  S
C639        C673   1.483       .  S
C642        N643   1.372       .  A
C642        N647   1.372       .  A
C642        N648   1.447       .  S
N643        C644   1.355       .  A
C644        N645   1.350       .  A
N645        C646   1.357       .  A
C646        N647   1.369       .  A
N648        C652   1.373       .  A
N648        C649   1.367       .  A
C649        C650   1.375       .  A
C649        C675   1.490       .  S
C650        C651   1.361       .  A
C650        H653   1.083   1_565  S
C651        C652   1.388       .  A
C651       H2454   1.082       .  S
C652        C723   1.497       .  S
H654       C1551   1.082       .  S
O655        C671   1.284       .  A
O655       Zn661   2.093       .  S
C656        O672   1.286       .  A
C656        O669   1.283       .  A
O657        C670   1.278       .  A
O657       Cd664   2.079   1_554  S
O658      Cd1567   2.098       .  S
O659        C673   1.272       .  A
O659       Cd663   2.043       .  S
O660        C671   1.276       .  A
O660       Cd663   2.053   1_554  S
Zn661       O672   2.089       .  S
Zn661      O2174   2.102   1_455  S
Zn661       O666   1.944       .  S
O662        C673   1.275       .  A
O662       Cd667   2.121       .  S
Cd663       O666   1.954   1_556  S
Cd664      O1568   2.112       .  S
Cd664       O677   2.042       .  S
Cd664       O966   1.998   1_566  S
O665        C675   1.274   1_545  A
O666      Cd2164   1.996   1_554  S
O666       Cd667   2.015   1_554  S
Cd667      O2458   2.100   1_455  S
Cd667       O669   2.105   1_556  S
O668        C675   1.278       .  A
O668      Cd2464   2.120       .  S
C670        O674   1.289       .  A
O674       Zn961   2.120   1_565  S
C676        O677   1.271       .  A
N678        C682   1.361       .  A
N678        C679   1.351       .  A
N678        C701   1.436       .  S
C679        C680   1.381       .  A
C679        C721   1.480       .  S
C680        C681   1.366       .  A
C680        H683   1.076       .  S
C681        C682   1.381       .  A
C681        H684   1.083       .  S
C682        C771   1.456       .  S
N685        C689   1.364       .  A
N685        C699   1.427       .  S
C686        C687   1.384       .  A
C686        C756   1.499       .  S
C687        H690   1.083       .  S
C688        C689   1.382       .  A
C688        H691   1.083       .  S
C689        C720   1.460       .  S
N692        C696   1.360       .  A
N692        C693   1.356   1_455  A
N692        C703   1.431       .  S
C693        C694   1.378       .  A
C693       C2506   1.477       .  S
C694        C695   1.367       .  A
C694        H697   1.082       .  S
C695        C696   1.386   1_655  A
C695        H698   1.083       .  S
C696        C770   1.468       .  S
C699        N704   1.364       .  A
N700       C2501   1.341   1_455  A
C701       N1600   1.344       .  A
N702       C1603   1.366       .  A
C703       N2502   1.365   1_455  A
C703        N704   1.368       .  A
O705        C721   1.262       .  A
O705       Zn711   1.925       .  S
C706       C1593   1.473       .  S
C706        O722   1.265       .  A
C706       O1619   1.278       .  A
O707        C720   1.276       .  A
O707       Cd714   2.075       .  S
O708        C726   1.278       .  A
O708       Cd717   2.044       .  S
O709       C1623   1.281       .  A
O709       Cd713   2.079       .  S
O710        C721   1.288       .  A
O710       Cd713   2.152       .  S
Zn711       O722   1.965       .  S
Zn711       O724   1.959       .  S
Zn711       O716   1.869       .  S
O712        C723   1.281       .  A
O712      Cd2517   2.128   1_455  S
Cd713       O715   2.129       .  S
Cd713       O716   1.960       .  S
Cd714       O718   2.066       .  S
Cd714       O727   2.073       .  S
Cd714       O716   1.970       .  S
O715        C725   1.287       .  A
O716       Cd717   1.992       .  S
Cd717      O1612   2.119       .  S
Cd717      O1619   2.117       .  S
O718        C725   1.278       .  A
O719       C2506   1.281   1_455  A
O719      Cd2517   2.125   1_455  S
C720        O724   1.263       .  A
C723       O2509   1.282       .  A
C726        O727   1.275       .  A
N728        C732   1.362       .  A
N728        C729   1.344       .  A
N728        C749   1.435       .  S
C729        C730   1.373       .  A
C729        C775   1.470       .  S
C730        C731   1.372       .  A
C730        H733   1.074       .  S
C731        C732   1.385       .  A
C731        H734   1.083       .  S
C732        C820   1.486       .  S
N735        C739   1.364       .  A
N735        C736   1.351       .  A
N735       C2553   1.440   1_455  S
C736        C737   1.381       .  A
C736        C776   1.477       .  S
C737        C738   1.359       .  A
C737        H740   1.075       .  S
C738        C739   1.377       .  A
C738        H741   1.083       .  S
C739        C806   1.471       .  S
N742        C746   1.365       .  A
N742        C743   1.357       .  A
N742        C751   1.430       .  S
C744        C745   1.370       .  A
C744        H747   1.072       .  S
C745        H748   1.083       .  S
C746        C821   1.489       .  S
C749        N750   1.346       .  A
C749        N754   1.366       .  A
N750        C751   1.361       .  A
C751        N752   1.354       .  A
N752        C753   1.366       .  A
C753        N754   1.355       .  A
C753       N1635   1.440       .  S
O755        C771   1.270       .  A
O755       Zn761   1.958       .  S
C756        O772   1.263       .  A
C756        O769   1.294       .  A
O757        C770   1.272       .  A
O757       Cd764   2.059       .  S
O758        C776   1.289       .  A
O758       Cd767   2.148       .  S
O759        C773   1.273       .  A
O759       Cd763   2.060       .  S
O760        C771   1.279       .  A
O760       Cd763   2.090       .  S
Zn761       O772   1.912       .  S
Zn761       O774   2.014       .  S
Zn761       O766   1.866       .  S
O762        C773   1.277       .  A
O762       Cd767   2.088       .  S
Cd763       O765   2.064       .  S
Cd763       O766   1.989       .  S
Cd764       O768   2.061       .  S
Cd764       O777   1.984       .  S
Cd764       O766   1.963       .  S
O765        C775   1.271       .  A
O766       Cd767   2.013       .  S
Cd767       O769   2.209       .  S
O768        C775   1.277       .  A
C770        O774   1.271       .  A
C776        O777   1.264       .  A
N778        C782   1.369       .  A
N778        C779   1.379       .  A
N778        C803   1.446       .  S
C779        C780   1.381       .  A
C779        C899   1.486       .  S
C780        C781   1.357       .  A
C780        H783   1.083       .  S
C781        C782   1.383       .  A
C781        H784   1.083       .  S
C782        C823   1.486       .  S
N785        C789   1.356       .  A
N785        C786   1.360       .  A
N785        C801   1.445       .  S
C786        C787   1.384       .  A
C786        C898   1.467       .  S
C787        C788   1.359       .  A
C787       H2590   1.083       .  S
C788        C789   1.374       .  A
C788        H791   1.075       .  S
C789        C825   1.465       .  S
H790       C1687   1.083       .  S
N792        C793   1.363       .  A
N792        C799   1.446       .  S
C793        C826   1.478       .  S
C794        C795   1.362       .  A
C794        H797   1.083       .  S
C795        C796   1.386       .  A
C795        H798   1.083       .  S
C796        C896   1.492       .  S
C799        N800   1.369       .  A
C799        N804   1.373       .  A
N800        C801   1.353       .  A
C801        N802   1.350       .  A
N802        C803   1.356       .  A
C803        N804   1.370       .  A
O805        C821   1.284       .  A
O805      Zn1711   2.079       .  S
C806        O822   1.282       .  A
C806        O819   1.272       .  A
O807        C820   1.278       .  A
O807       Cd814   2.084       .  S
O808        C826   1.273       .  A
O808       Cd817   2.060       .  S
O809        C823   1.276       .  A
O810        C821   1.285       .  A
O810       Cd813   2.109       .  S
Zn811      O2605   2.087   1_455  S
Zn811       O824   2.090       .  S
Zn811       O816   1.933       .  S
O812        C823   1.269       .  A
O812      Cd1717   2.036       .  S
Cd813      O1715   2.096       .  S
Cd813      O1716   2.009       .  S
Cd814       O818   2.034       .  S
Cd814       O827   2.098       .  S
Cd814       O816   1.995       .  S
O815        C825   1.280       .  A
O815      Cd2613   2.100   1_455  S
O816      Cd2613   2.008   1_455  S
Cd817      O2612   2.036   1_455  S
Cd817       O819   2.037       .  S
O818        C825   1.270       .  A
C820        O824   1.285       .  A
N828        C829   1.356       .  A
N828       C1749   1.436       .  S
C829        C830   1.377       .  A
C829        C894   1.466       .  S
C830        H833   1.080       .  S
C831        C832   1.385       .  A
C831        H834   1.083       .  S
C832        C870   1.465   1_545  S
N835        C839   1.353       .  A
N835        C836   1.358       .  A
N835        C851   1.427       .  S
C836        C837   1.382       .  A
C836        C856   1.453       .  S
C837        C838   1.366       .  A
C837        H840   1.083       .  S
C838        C839   1.384       .  A
C838        H841   1.083       .  S
C839        C879   1.486       .  S
N842        C846   1.359       .  A
N842        C843   1.370       .  A
N842        C853   1.435       .  S
C843        C844   1.391       .  A
C843        C871   1.490       .  S
C844        C845   1.368       .  A
C844        H847   1.083       .  S
C845        C846   1.377       .  A
C845        H848   1.083       .  S
C846       C2693   1.462       .  S
C849        N850   1.366       .  A
C849       N2628   1.438   1_455  S
N850        C851   1.350       .  A
C851        N852   1.341       .  A
C853        N854   1.366   1_455  A
O855        C871   1.271       .  A
O855       Zn861   1.985       .  S
C856        O872   1.269       .  A
C856        O869   1.279       .  A
O857        C870   1.275       .  A
O857       Cd864   2.066       .  S
O858        C876   1.273       .  A
O858       Cd867   2.067       .  S
O859        C873   1.277       .  A
O859       Cd863   2.090       .  S
O860        C871   1.289       .  A
O860       Cd863   2.170       .  S
Zn861       O872   1.954       .  S
Zn861       O874   2.026       .  S
Zn861       O866   1.864       .  S
O862        C873   1.274       .  A
O862       Cd867   2.046       .  S
Cd863       O865   2.125       .  S
Cd863       O866   2.004       .  S
Cd864       O868   2.007       .  S
Cd864       O877   2.078       .  S
Cd864       O866   1.963       .  S
O865        C875   1.285       .  A
O866       Cd867   1.966       .  S
Cd867       O869   2.083       .  S
O868        C875   1.266       .  A
C870        O874   1.277       .  A
C876        O877   1.278       .  A
O878        C894   1.266       .  A
O878       Zn884   2.001       .  S
C879        O895   1.263       .  A
C879        O892   1.290       .  A
O880       C2693   1.276       .  A
O880      Cd2687   2.094   1_455  S
O881        C899   1.290       .  A
O881       Cd890   2.152       .  S
O882        C896   1.274       .  A
O882       Cd886   2.089       .  S
O883        C894   1.273       .  A
O883       Cd886   2.082       .  S
Zn884       O895   1.921       .  S
Zn884       O897   1.966       .  S
Zn884       O889   1.905       .  S
O885        C896   1.285       .  A
O885       Cd890   2.111       .  S
Cd886       O888   2.042       .  S
Cd886       O889   1.975       .  S
Cd887      O1780   2.093       .  S
Cd887      O1791   2.077       .  S
Cd887       O900   2.072       .  S
Cd887       O889   1.983       .  S
O888       C1798   1.279       .  A
O889       Cd890   1.988       .  S
Cd890       O892   2.169       .  S
O891        C898   1.276       .  A
O891      Cd2687   2.081   1_455  S
C893       C1746   1.462       .  S
C893       O1780   1.276       .  A
C893        O897   1.266       .  A
C898       O2688   1.278   1_455  A
C899        O900   1.279       .  A
N901        C905   1.363       .  A
N901        C902   1.355       .  A
C902        C903   1.376       .  A
C902       C1173   1.480       .  S
C903        C904   1.372       .  A
C903        H906   1.074       .  S
C904        C905   1.382       .  A
C904        H907   1.083       .  S
C905        C956   1.492       .  S
N908        C912   1.363       .  A
N908        C909   1.348       .  A
N908        C922   1.435       .  S
C909        C910   1.373       .  A
C909       C1176   1.475       .  S
C910        C911   1.372       .  A
C910        H913   1.071       .  S
C911        C912   1.384       .  A
C911        H914   1.083       .  S
C912        C970   1.491       .  S
N915        C919   1.361       .  A
N915       C1516   1.351   1_545  A
N915        C924   1.441       .  S
C916       N1215   1.354       .  A
C916        C917   1.381       .  A
C916       C1175   1.475       .  S
C917        C918   1.362       .  A
C917        H920   1.077       .  S
C918       C1219   1.378       .  A
C918        H921   1.083       .  S
C919       C1518   1.380   1_545  A
C919        C971   1.476       .  S
C922        N923   1.365       .  A
C922        N927   1.345       .  A
N923        C924   1.355       .  A
C924        N925   1.367       .  A
N925        C926   1.355       .  A
C926        N927   1.362       .  A
C926       N1801   1.433       .  S
N928       C1232   1.363       .  A
N928        C929   1.353       .  A
N928        C944   1.444       .  S
C929       C1230   1.371       .  A
C929        C976   1.461       .  S
C930       C1529   1.370       .  A
C930        C931   1.355       .  A
C930        H933   1.073       .  S
C931        C932   1.385       .  A
C931        H934   1.083       .  S
C932       N1528   1.364       .  A
C932       C1026   1.470   1_565  S
N935        C939   1.367       .  A
N935        C936   1.374       .  A
N935        C946   1.444       .  S
C936        C937   1.382       .  A
C936       C1025   1.481       .  S
C937        C938   1.360       .  A
C937        H940   1.083       .  S
C938        C939   1.383       .  A
C938        H941   1.083       .  S
C939        C973   1.481       .  S
C942        N943   1.369       .  A
C942        N947   1.371       .  A
C942        N948   1.443       .  S
N943        C944   1.352       .  A
C944        N945   1.351       .  A
N945        C946   1.356       .  A
C946        N947   1.368       .  A
N948        C952   1.371       .  A
N948        C949   1.367       .  A
C949        C950   1.375       .  A
C949        C975   1.489       .  S
C950        C951   1.362       .  A
C950        H953   1.083       .  S
C951        C952   1.388       .  A
C952       C1023   1.495       .  S
H954       C1851   1.082       .  S
O955        C971   1.286       .  A
O955       Zn961   2.105       .  S
C956        O972   1.288       .  A
C956        O969   1.282       .  A
O957        C970   1.279       .  A
O957       Cd964   2.084   1_554  S
O958       C1576   1.280   1_545  A
O958      Cd1867   2.093       .  S
O959        C973   1.271       .  A
O959       Cd963   2.039       .  S
O960        C971   1.273       .  A
O960       Cd963   2.035   1_554  S
Zn961       O972   2.106       .  S
Zn961       O966   1.950       .  S
O962        C973   1.275       .  A
O962       Cd967   2.118       .  S
Cd963      O1565   2.069       .  S
Cd963       O966   1.960   1_556  S
Cd964      O1868   2.115       .  S
Cd964       O977   2.026       .  S
Cd964      O2166   2.006   1_556  S
O965        C975   1.275       .  A
O965      Cd1263   2.080       .  S
O966       Cd967   2.009   1_554  S
Cd967       O969   2.098   1_556  S
O968        C975   1.278       .  A
C970        O974   1.288       .  A
O974      Zn2161   2.110       .  S
C976       O1258   1.279       .  A
C976        O977   1.269       .  A
N978        C982   1.361       .  A
N978        C979   1.353       .  A
N978       C1001   1.433       .  S
C979        C980   1.382       .  A
C979       C1021   1.485       .  S
C980        C981   1.366       .  A
C980        H983   1.077       .  S
C981        C982   1.380       .  A
C981        H984   1.083       .  S
C982       C1071   1.456       .  S
N985        C989   1.360       .  A
N985       C1586   1.368       .  A
N985        C999   1.430       .  S
C986       N1285   1.369       .  A
C986        C987   1.392       .  A
C986       C1056   1.494       .  S
C987       C1288   1.367       .  A
C987        H990   1.083       .  S
C988       C1587   1.366       .  A
C988        C989   1.378       .  A
C988        H991   1.083       .  S
C989       C1020   1.463   1_565  S
N992        C996   1.360       .  A
N992        C993   1.357       .  A
N992       C1003   1.432       .  S
C993        C994   1.378       .  A
C994        C995   1.368       .  A
C994        H997   1.083       .  S
C995        C996   1.385       .  A
C995        H998   1.083       .  S
C996       C1070   1.472       .  S
C999       N1600   1.351       .  A
C999       N1004   1.363   1_565  A
N1000      C1299   1.353       .  A
C1001      N1900   1.342       .  A
C1001      N1302   1.351       .  A
N1002      C1601   1.350       .  A
N1002      C1903   1.367   1_565  A
C1003      N1004   1.366       .  A
O1005      C1021   1.262       .  A
O1005     Zn1011   1.928       .  S
C1006      C1893   1.474       .  S
C1006      O1022   1.265       .  A
C1006      O1919   1.280       .  A
O1007      C1020   1.276       .  A
O1007     Cd1014   2.091       .  S
O1008      C1026   1.278       .  A
O1008     Cd1017   2.048       .  S
O1009      C1923   1.282       .  A
O1009     Cd1013   2.087       .  S
O1010      C1021   1.289       .  A
O1010     Cd1013   2.166       .  S
Zn1011     O1022   1.966       .  S
Zn1011     O1024   1.958       .  S
Zn1011     O1016   1.874       .  S
O1012      C1023   1.282       .  A
Cd1013     O1015   2.127       .  S
Cd1013     O1016   1.972       .  S
Cd1014     O1018   2.079       .  S
Cd1014     O1027   2.080       .  S
Cd1014     O1016   1.982       .  S
O1015      C1025   1.287       .  A
O1016     Cd1017   1.988       .  S
Cd1017     O1912   2.128       .  S
Cd1017     O1919   2.124       .  S
O1018      C1025   1.280       .  A
C1020      O1024   1.263       .  A
C1026      O1027   1.275       .  A
N1028      C1032   1.362       .  A
N1028      C1029   1.347       .  A
N1028      C1049   1.435       .  S
C1029      C1030   1.374       .  A
C1029      C1075   1.476       .  S
C1030      C1031   1.372       .  A
C1030      H1033   1.073       .  S
C1031      C1032   1.385       .  A
C1031      H1034   1.083       .  S
C1032      C1120   1.488       .  S
N1035      C1039   1.361       .  A
N1035      C1036   1.350       .  A
C1036      C1037   1.379       .  A
C1036      C1076   1.473       .  S
C1037      C1038   1.363       .  A
C1037      H1040   1.074       .  S
C1038      C1039   1.378       .  A
C1038      H1041   1.083       .  S
C1039      C1106   1.471       .  S
N1042      C1046   1.364       .  A
N1042      C1043   1.357       .  A
N1042      C1051   1.433       .  S
C1043      C1644   1.375   1_545  A
C1043      C1673   1.481   1_545  S
C1044      C1343   1.377       .  A
C1044      C1045   1.370       .  A
C1044      H1047   1.076       .  S
C1045      C1346   1.381       .  A
C1045      H1048   1.083       .  S
C1046      C1645   1.382   1_545  A
C1046      C1121   1.492       .  S
C1049      N1050   1.347       .  A
C1049      N1054   1.364       .  A
N1050      C1051   1.362       .  A
C1051      N1052   1.354       .  A
N1052      C1053   1.367       .  A
C1053      N1054   1.352       .  A
C1053      N1935   1.439       .  S
O1055      C1071   1.271       .  A
O1055     Zn1061   1.965       .  S
C1056      O1072   1.271       .  A
C1056      O1069   1.292       .  A
O1057      C1070   1.276       .  A
O1057     Cd1064   2.071       .  S
O1058      C1076   1.285       .  A
O1058     Cd1067   2.130       .  S
O1059      C1073   1.273       .  A
O1059     Cd1063   2.052       .  S
O1060      C1071   1.279       .  A
O1060     Cd1063   2.086       .  S
Zn1061     O1072   1.963       .  S
Zn1061     O1074   2.027       .  S
Zn1061     O1066   1.872       .  S
O1062      C1073   1.279       .  A
O1062     Cd1067   2.094       .  S
Cd1063     O1065   2.068       .  S
Cd1063     O1066   1.980       .  S
Cd1064     O1068   2.074       .  S
Cd1064     O1077   2.001       .  S
Cd1064     O1066   1.973       .  S
O1065      C1075   1.272       .  A
O1066     Cd1067   2.002       .  S
Cd1067     O1069   2.183       .  S
O1068      C1075   1.279       .  A
C1070      O1074   1.274       .  A
C1073      C1343   1.481       .  S
C1076      O1077   1.265       .  A
N1078      C1082   1.368       .  A
N1078      C1079   1.375       .  A
N1078      C1103   1.447       .  S
C1079      C1080   1.380       .  A
C1079      C1199   1.479       .  S
C1080      C1081   1.357       .  A
C1080      H1083   1.083       .  S
C1081      C1082   1.384       .  A
C1081      H1084   1.083       .  S
C1082      C1123   1.481       .  S
N1085      C1089   1.357       .  A
N1085      C1086   1.361       .  A
N1085      C1101   1.447       .  S
C1086      C1087   1.385       .  A
C1086      C1198   1.470       .  S
C1087      C1088   1.358       .  A
C1088      C1089   1.375       .  A
C1088      H1091   1.078       .  S
C1089      C1125   1.464       .  S
H1090      C1987   1.083       .  S
N1092      C1396   1.371       .  A
N1092      C1093   1.365       .  A
N1092      C1099   1.445       .  S
C1093      C1394   1.376       .  A
C1093      C1126   1.485       .  S
C1094      C1693   1.376       .  A
C1094      C1095   1.361       .  A
C1094      H1097   1.083       .  S
C1095      C1096   1.388       .  A
C1095      H1098   1.083       .  S
C1096      N1692   1.369       .  A
C1096      C1196   1.490   1_565  S
C1099      N1100   1.370       .  A
C1099      N1104   1.372       .  A
N1100      C1101   1.355       .  A
C1101      N1102   1.350       .  A
N1102      C1103   1.357       .  A
C1103      N1104   1.369       .  A
O1105      C1121   1.286       .  A
O1105     Zn2011   2.094       .  S
C1106      O1122   1.284       .  A
C1106      O1119   1.273       .  A
O1107      C1120   1.279       .  A
O1107     Cd1114   2.088       .  S
O1108      C1126   1.274       .  A
O1108     Cd1117   2.065       .  S
O1109      C1123   1.274       .  A
O1109     Cd1413   2.116       .  S
O1110      C1121   1.282       .  A
O1110     Cd1113   2.098       .  S
Zn1111     O1722   2.084   1_545  S
Zn1111     O1124   2.092       .  S
Zn1111     O1116   1.933   1_545  S
O1112      C1123   1.271       .  A
O1112     Cd2017   2.039       .  S
Cd1113     O1709   2.119   1_545  S
Cd1113     O2015   2.085       .  S
Cd1113     O2016   2.004   1_545  S
Cd1114     O1118   2.035       .  S
Cd1114     O1127   2.108   1_545  S
Cd1114     O1116   1.990   1_545  S
O1115      C1125   1.280       .  A
O1116     Cd1717   1.948       .  S
Cd1117     O1119   2.039       .  S
Cd1117     O1416   1.949       .  S
O1118      C1125   1.270       .  A
C1120      O1124   1.286       .  A
O1122     Zn1411   2.086       .  S
C1126      O1427   1.279       .  A
O1127      C1726   1.279       .  A
N1128      C1732   1.359       .  A
N1128      C1129   1.355       .  A
N1128      C2049   1.434       .  S
C1129      C1130   1.376       .  A
C1129      C1194   1.472       .  S
C1130      C1731   1.366       .  A
C1130      H1133   1.082       .  S
C1131      C1430   1.367       .  A
C1131      C1132   1.387       .  A
C1131      H1134   1.083       .  S
C1132      N1428   1.359       .  A
C1132      C1170   1.467       .  S
N1135      C1139   1.351       .  A
N1135      C1136   1.362       .  A
N1135      C1151   1.436       .  S
C1136      C1137   1.380       .  A
C1136      C1156   1.458       .  S
C1137      C1138   1.366       .  A
C1137      H1140   1.083       .  S
C1138      C1139   1.382       .  A
C1138      H1141   1.076       .  S
C1139      C1179   1.480       .  S
N1142      C1146   1.359       .  A
N1142      C1143   1.368       .  A
N1142      C1153   1.430       .  S
C1143      C1144   1.390       .  A
C1143      C1171   1.492       .  S
C1144      C1145   1.365       .  A
C1144      H1147   1.083       .  S
C1145      C1146   1.377       .  A
C1145      H1148   1.082       .  S
C1149      N1150   1.366       .  A
C1149      N1754   1.369   1_545  A
N1150      C1151   1.351       .  A
C1151      N1152   1.346       .  A
N1152      C1753   1.355   1_545  A
C1153      N1452   1.349       .  A
C1153      N1154   1.361       .  A
N1154      C1449   1.367       .  A
O1155      C1171   1.270       .  A
O1155     Zn1161   1.957       .  S
C1156      O1172   1.271       .  A
C1156      O1169   1.281       .  A
O1157      C1170   1.273       .  A
O1157     Cd1164   2.051       .  S
O1158      C1176   1.272       .  A
O1158     Cd1167   2.075       .  S
O1159      C1173   1.278       .  A
O1159     Cd1163   2.085       .  S
O1160      C1171   1.290       .  A
O1160     Cd1163   2.177       .  S
Zn1161     O1172   1.961       .  S
Zn1161     O1174   2.019       .  S
Zn1161     O1166   1.870       .  S
O1162      C1173   1.275       .  A
O1162     Cd1167   2.055       .  S
Cd1163     O1165   2.127       .  S
Cd1163     O1166   2.008       .  S
Cd1164     O1168   2.007       .  S
Cd1164     O1177   2.063       .  S
Cd1164     O1166   1.969       .  S
O1165      C1175   1.285       .  A
O1166     Cd1167   1.982       .  S
Cd1167     O1169   2.094       .  S
O1168      C1175   1.267       .  A
C1170      O1174   1.274       .  A
C1176      O1177   1.275       .  A
O1178      C1194   1.266       .  A
O1178     Zn1184   1.960       .  S
C1179      O1195   1.262       .  A
C1179      O1192   1.285       .  A
O1181      C1199   1.286       .  A
O1181     Cd1190   2.122       .  S
O1182      C1196   1.278       .  A
O1182     Cd1186   2.118       .  S
O1183      C1194   1.278       .  A
O1183     Cd1186   2.110       .  S
Zn1184     O1195   1.927       .  S
Zn1184     O1197   1.963       .  S
Zn1184     O1189   1.882       .  S
O1185      C1196   1.279       .  A
O1185     Cd1190   2.072       .  S
Cd1186     O1188   2.058       .  S
Cd1186     O1189   1.991       .  S
Cd1187     O2080   2.087       .  S
Cd1187     O2091   2.084       .  S
Cd1187     O1200   2.082       .  S
Cd1187     O1189   1.978       .  S
O1188      C2098   1.279       .  A
O1189     Cd1190   1.975       .  S
Cd1190     O1192   2.149       .  S
O1191      C1198   1.277       .  A
C1193      C2046   1.464       .  S
C1193      O2080   1.276       .  A
C1193      O1197   1.264       .  A
C1199      O1200   1.281       .  A
N1201      C1205   1.365       .  A
N1201      C1202   1.358       .  A
C1202      C1203   1.376       .  A
C1202      C1473   1.484       .  S
C1203      C1204   1.373       .  A
C1203      H1206   1.075       .  S
C1204      C1205   1.383       .  A
C1204      H1207   1.083       .  S
C1205      C1256   1.495       .  S
N1208      C1212   1.368       .  A
N1208      C1209   1.352       .  A
N1208      C1222   1.441       .  S
C1209      C1210   1.373       .  A
C1209      C1476   1.479       .  S
C1210      C1211   1.371       .  A
C1210      H1213   1.072       .  S
C1211      C1212   1.385       .  A
C1211      H1214   1.083       .  S
C1212      C1270   1.497       .  S
N1215      C1219   1.363       .  A
N1215      C1224   1.441       .  S
C1216      N1515   1.351       .  A
C1216      C1217   1.381       .  A
C1216      C1475   1.469       .  S
C1217      C1218   1.360       .  A
C1217      H1220   1.077       .  S
C1218      C1519   1.379       .  A
C1218      H1221   1.083       .  S
C1219      C1271   1.474       .  S
C1222      N1223   1.367       .  A
C1222      N1227   1.349       .  A
N1223      C1224   1.357       .  A
C1224      N1225   1.365       .  A
N1225      C1226   1.353       .  A
C1226      N1227   1.364       .  A
C1226      N2101   1.434       .  S
N1228      C1532   1.363       .  A
N1228      C1229   1.356       .  A
N1228      C1244   1.443       .  S
C1229      C1530   1.368       .  A
C1229      C1276   1.463       .  S
C1230      C1231   1.358       .  A
C1230      H1233   1.072       .  S
C1231      C1232   1.384       .  A
C1231      H1234   1.083       .  S
C1232      C1326   1.467       .  S
N1235      C1239   1.370       .  A
N1235      C1236   1.374       .  A
N1235      C1246   1.446       .  S
C1236      C1237   1.379       .  A
C1236      C1325   1.480       .  S
C1237      C1238   1.356       .  A
C1237      H1240   1.083       .  S
C1238      C1239   1.385       .  A
C1238      H1241   1.083       .  S
C1239      C1273   1.483       .  S
C1242      N1243   1.370       .  A
C1242      N1247   1.375       .  A
C1242      N1248   1.447       .  S
N1243      C1244   1.351       .  A
C1244      N1245   1.348       .  A
N1245      C1246   1.355       .  A
C1246      N1247   1.371       .  A
N1248      C1252   1.375       .  A
N1248      C1249   1.369       .  A
C1249      C1250   1.375       .  A
C1249      C1275   1.488       .  S
C1250      C1251   1.360       .  A
C1250      H1253   1.083       .  S
C1251      C1252   1.387       .  A
C1252      C1323   1.498       .  S
H1254      C2151   1.082       .  S
O1255      C1271   1.284       .  A
O1255     Zn1261   2.094       .  S
C1256      O1272   1.287       .  A
C1256      O1269   1.284       .  A
O1257      C1270   1.281       .  A
O1257     Cd1264   2.097   1_554  S
O1258     Cd2167   2.091       .  S
O1259      C1273   1.271       .  A
O1259     Cd1263   2.041       .  S
O1260      C1271   1.273       .  A
O1260     Cd1263   2.041   1_554  S
Zn1261     O1272   2.100       .  S
Zn1261     O1266   1.941       .  S
O1262      C1273   1.275       .  A
O1262     Cd1267   2.121       .  S
Cd1263     O1266   1.952   1_556  S
Cd1264     O2168   2.119       .  S
Cd1264     O1277   2.042       .  S
Cd1264     O2466   2.004   1_556  S
O1265      C1275   1.275       .  A
O1265     Cd1563   2.082       .  S
O1266     Cd1267   2.012   1_554  S
Cd1267     O1269   2.111   1_556  S
O1268      C1275   1.276       .  A
C1270      O1274   1.288       .  A
O1274     Zn2461   2.117       .  S
C1276      O1558   1.278       .  A
C1276      O1277   1.271       .  A
N1278      C1282   1.362       .  A
N1278      C1279   1.354       .  A
N1278      C1301   1.434       .  S
C1279      C1280   1.382       .  A
C1279      C1321   1.486       .  S
C1280      C1281   1.365       .  A
C1280      H1283   1.074       .  S
C1281      C1282   1.379       .  A
C1281      H1284   1.083       .  S
C1282      C1371   1.455       .  S
N1285      C1289   1.359       .  A
N1285      C1299   1.434       .  S
C1286      N1585   1.368       .  A
C1286      C1287   1.388       .  A
C1286      C1356   1.494       .  S
C1287      C1588   1.364       .  A
C1287      H1290   1.083       .  S
C1288      C1289   1.377       .  A
C1288      H1291   1.083       .  S
C1289      C1320   1.462       .  S
N1292      C1296   1.357       .  A
N1292      C1293   1.355       .  A
N1292      C1303   1.429       .  S
C1293      C1294   1.377       .  A
C1294      C1295   1.368       .  A
C1294      H1297   1.082       .  S
C1295      C1296   1.386       .  A
C1295      H1298   1.083       .  S
C1296      C1370   1.464       .  S
C1299      N1304   1.364       .  A
N1300      C1599   1.349       .  A
C1301      N2200   1.343       .  A
C1301      N1602   1.353       .  A
N1302      C2203   1.367       .  A
C1303      N1304   1.367       .  A
O1305      C1321   1.264       .  A
O1305     Zn1311   1.937       .  S
C1306      C2193   1.470       .  S
C1306      O1322   1.262       .  A
C1306      O2219   1.278       .  A
O1307      C1320   1.276       .  A
O1307     Cd1314   2.094       .  S
O1308      C1326   1.279       .  A
O1308     Cd1317   2.056       .  S
O1309      C2223   1.281       .  A
O1309     Cd1313   2.085       .  S
O1310      C1321   1.288       .  A
O1310     Cd1313   2.160       .  S
Zn1311     O1322   1.956       .  S
Zn1311     O1324   1.950       .  S
Zn1311     O1316   1.873       .  S
O1312      C1323   1.279       .  A
Cd1313     O1315   2.127       .  S
Cd1313     O1316   1.972       .  S
Cd1314     O1318   2.076       .  S
Cd1314     O1327   2.073       .  S
Cd1314     O1316   1.978       .  S
O1315      C1325   1.287       .  A
O1316     Cd1317   1.995       .  S
Cd1317     O2212   2.119       .  S
Cd1317     O2219   2.117       .  S
O1318      C1325   1.280       .  A
C1320      O1324   1.262       .  A
C1326      O1327   1.274       .  A
N1328      C1332   1.364       .  A
N1328      C1329   1.349       .  A
N1328      C1349   1.436       .  S
C1329      C1330   1.373       .  A
C1329      C1375   1.478       .  S
C1330      C1331   1.373       .  A
C1330      H1333   1.071       .  S
C1331      C1332   1.385       .  A
C1331      H1334   1.083       .  S
C1332      C1420   1.491       .  S
N1335      C1339   1.361       .  A
N1335      C1336   1.350       .  A
C1336      C1337   1.381       .  A
C1336      C1376   1.472       .  S
C1337      C1338   1.360       .  A
C1337      H1340   1.076       .  S
C1338      C1339   1.378       .  A
C1338      H1341   1.083       .  S
C1339      C1406   1.467       .  S
N1342      C1346   1.364       .  A
N1342      C1343   1.358       .  A
N1342      C1351   1.432       .  S
C1344      C1643   1.372       .  A
C1344      C1345   1.371       .  A
C1344      H1347   1.073       .  S
C1345      C1646   1.381       .  A
C1345      H1348   1.082       .  S
C1346      C1421   1.488       .  S
C1349      N1350   1.346       .  A
C1349      N1354   1.365       .  A
N1350      C1351   1.362       .  A
C1351      N1352   1.356       .  A
N1352      C1353   1.367       .  A
C1353      N1354   1.354       .  A
C1353      N2235   1.440       .  S
O1355      C1371   1.268       .  A
O1355     Zn1361   1.945       .  S
C1356      O1372   1.267       .  A
C1356      O1369   1.292       .  A
O1357      C1370   1.273       .  A
O1357     Cd1364   2.057       .  S
O1358      C1376   1.287       .  A
O1358     Cd1367   2.139       .  S
O1359      C1373   1.273       .  A
O1359     Cd1363   2.051       .  S
O1360      C1371   1.280       .  A
O1360     Cd1363   2.095       .  S
Zn1361     O1372   1.944       .  S
Zn1361     O1374   2.007       .  S
Zn1361     O1366   1.862       .  S
O1362      C1373   1.278       .  A
O1362     Cd1367   2.092       .  S
Cd1363     O1365   2.085       .  S
Cd1363     O1366   1.981       .  S
Cd1364     O1368   2.066       .  S
Cd1364     O1377   1.992       .  S
Cd1364     O1366   1.969       .  S
O1365      C1375   1.274       .  A
O1366     Cd1367   2.012       .  S
Cd1367     O1369   2.191       .  S
O1368      C1375   1.277       .  A
C1370      O1374   1.272       .  A
C1373      C1643   1.478       .  S
C1376      O1377   1.264       .  A
N1378      C1382   1.366       .  A
N1378      C1379   1.374       .  A
N1378      C1403   1.443       .  S
C1379      C1380   1.380       .  A
C1379      C1499   1.481       .  S
C1380      C1381   1.359       .  A
C1380      H1383   1.083       .  S
C1381      C1382   1.384       .  A
C1381      H1384   1.083       .  S
C1382      C1423   1.481       .  S
N1385      C1389   1.355       .  A
N1385      C1386   1.360       .  A
N1385      C1401   1.446       .  S
C1386      C1387   1.385       .  A
C1386      C1498   1.466       .  S
C1387      C1388   1.361       .  A
C1388      C1389   1.375       .  A
C1388      H1391   1.076       .  S
C1389      C1425   1.466       .  S
H1390      C2287   1.083       .  S
N1392      C1696   1.370       .  A
N1392      C1393   1.366       .  A
N1392      C1399   1.444       .  S
C1393      C1694   1.375       .  A
C1393      C1426   1.486       .  S
C1394      C1395   1.361       .  A
C1394      H1397   1.083       .  S
C1395      C1396   1.388       .  A
C1395      H1398   1.083       .  S
C1396      C1496   1.491       .  S
C1399      N1400   1.370       .  A
C1399      N1404   1.370       .  A
N1400      C1401   1.355       .  A
C1401      N1402   1.350       .  A
N1402      C1403   1.356       .  A
C1403      N1404   1.368       .  A
O1405      C1421   1.286       .  A
O1405     Zn2311   2.088       .  S
C1406      O1422   1.283       .  A
C1406      O1419   1.271       .  A
O1407      C1420   1.281       .  A
O1407     Cd1414   2.096       .  S
O1408      C1426   1.274       .  A
O1408     Cd1417   2.069       .  S
O1409      C1423   1.276       .  A
O1409     Cd1713   2.122       .  S
O1410      C1421   1.282       .  A
O1410     Cd1413   2.095       .  S
Zn1411     O1424   2.093       .  S
Zn1411     O1416   1.936       .  S
O1412      C1423   1.270       .  A
O1412     Cd2317   2.036       .  S
Cd1413     O2315   2.090       .  S
Cd1413     O2316   2.010       .  S
Cd1414     O1418   2.034       .  S
Cd1414     O1427   2.110       .  S
Cd1414     O1416   1.994       .  S
O1415      C1425   1.280       .  A
Cd1417     O1419   2.029       .  S
Cd1417     O1716   1.946       .  S
O1418      C1425   1.269       .  A
C1420      O1424   1.286       .  A
O1422     Zn1711   2.081       .  S
C1426      O1727   1.279       .  A
N1428      C1429   1.356       .  A
N1428      C2349   1.434       .  S
C1429      C1430   1.377       .  A
C1429      C1494   1.476       .  S
C1430      H1433   1.082       .  S
C1431      C1730   1.367       .  A
C1431      C1432   1.387       .  A
C1431      H1434   1.083       .  S
C1432      N1728   1.360       .  A
C1432      C1470   1.471       .  S
N1435      C1439   1.356       .  A
N1435      C1436   1.362       .  A
N1435      C1451   1.435       .  S
C1436      C1437   1.382       .  A
C1436      C1456   1.452       .  S
C1437      C1438   1.363       .  A
C1437      H1440   1.083       .  S
C1438      C1439   1.382       .  A
C1438      H1441   1.081       .  S
C1439      C1479   1.482       .  S
N1442      C1446   1.359       .  A
N1442      C1443   1.365       .  A
N1442      C1453   1.431       .  S
C1443      C1444   1.392       .  A
C1443      C1471   1.491       .  S
C1444      C1445   1.369       .  A
C1444      H1447   1.083       .  S
C1445      C1446   1.376       .  A
C1445      H1448   1.082       .  S
C1449      N1450   1.365       .  A
N1450      C1451   1.358       .  A
C1451      N1452   1.344       .  A
C1453      N1752   1.353       .  A
C1453      N1454   1.361       .  A
N1454      C1749   1.365       .  A
O1455      C1471   1.268       .  A
O1455     Zn1461   1.945       .  S
C1456      O1472   1.271       .  A
C1456      O1469   1.278       .  A
O1457      C1470   1.273       .  A
O1457     Cd1464   2.055       .  S
O1458      C1476   1.275       .  A
O1458     Cd1467   2.080       .  S
O1459      C1473   1.279       .  A
O1459     Cd1463   2.103       .  S
O1460      C1471   1.292       .  A
O1460     Cd1463   2.186       .  S
Zn1461     O1472   1.956       .  S
Zn1461     O1474   2.030       .  S
Zn1461     O1466   1.870       .  S
O1462      C1473   1.271       .  A
O1462     Cd1467   2.046       .  S
Cd1463     O1465   2.124       .  S
Cd1463     O1466   2.008       .  S
Cd1464     O1468   1.987       .  S
Cd1464     O1477   2.068       .  S
Cd1464     O1466   1.965       .  S
O1465      C1475   1.285       .  A
O1466     Cd1467   1.982       .  S
Cd1467     O1469   2.075       .  S
O1468      C1475   1.264       .  A
C1470      O1474   1.274       .  A
C1476      O1477   1.277       .  A
O1478      C1494   1.268       .  A
O1478     Zn1484   1.975       .  S
C1479      O1495   1.260       .  A
C1479      O1492   1.286       .  A
O1481      C1499   1.287       .  A
O1481     Cd1490   2.133       .  S
O1482      C1496   1.279       .  A
O1482     Cd1486   2.118       .  S
O1483      C1494   1.280       .  A
O1483     Cd1486   2.117       .  S
Zn1484     O1495   1.912       .  S
Zn1484     O1497   1.957       .  S
Zn1484     O1489   1.879       .  S
O1485      C1496   1.280       .  A
O1485     Cd1490   2.071       .  S
Cd1486     O1488   2.055       .  S
Cd1486     O1489   1.989       .  S
Cd1487     O2380   2.075       .  S
Cd1487     O2391   2.077       .  S
Cd1487     O1500   2.072       .  S
Cd1487     O1489   1.982       .  S
O1488      C2398   1.279       .  A
O1489     Cd1490   1.988       .  S
Cd1490     O1492   2.162       .  S
O1491      C1498   1.277       .  A
C1493      C2346   1.460       .  S
C1493      O2380   1.275       .  A
C1493      O1497   1.264       .  A
C1499      O1500   1.278       .  A
N1501      C1505   1.366       .  A
N1501      C1502   1.356       .  A
C1502      C1503   1.374       .  A
C1502      C1773   1.483       .  S
C1503      C1504   1.373       .  A
C1503      H1506   1.075       .  S
C1504      C1505   1.383       .  A
C1504      H1507   1.083       .  S
C1505      C1556   1.500       .  S
N1508      C1512   1.367       .  A
N1508      C1509   1.351       .  A
N1508      C1522   1.441       .  S
C1509      C1510   1.373       .  A
C1509      C1776   1.478       .  S
C1510      C1511   1.370       .  A
C1510      H1513   1.070       .  S
C1511      C1512   1.384       .  A
C1511      H1514   1.083       .  S
C1512      C1570   1.498       .  S
N1515      C1519   1.361       .  A
N1515      C1524   1.440       .  S
C1516      C1517   1.381       .  A
C1516      C1775   1.473       .  S
C1517      C1518   1.364       .  A
C1517      H1520   1.077       .  S
C1518      H1521   1.083       .  S
C1519      C1571   1.468       .  S
C1522      N1523   1.368       .  A
C1522      N1527   1.348       .  A
N1523      C1524   1.355       .  A
C1524      N1525   1.364       .  A
N1525      C1526   1.352       .  A
C1526      N1527   1.364       .  A
C1526      N2401   1.432       .  S
N1528      C1529   1.356       .  A
N1528      C1544   1.445       .  S
C1529      C1576   1.463       .  S
C1530      C1531   1.354       .  A
C1530      H1533   1.069       .  S
C1531      C1532   1.384       .  A
C1531      H1534   1.083       .  S
C1532      C1626   1.469       .  S
N1535      C1539   1.367       .  A
N1535      C1536   1.373       .  A
N1535      C1546   1.444       .  S
C1536      C1537   1.381       .  A
C1536      C1625   1.480       .  S
C1537      C1538   1.359       .  A
C1537      H1540   1.083       .  S
C1538      C1539   1.384       .  A
C1538      H1541   1.083       .  S
C1539      C1573   1.482       .  S
C1542      N1543   1.371       .  A
C1542      N1547   1.371       .  A
C1542      N1548   1.446       .  S
N1543      C1544   1.353       .  A
C1544      N1545   1.350       .  A
N1545      C1546   1.357       .  A
C1546      N1547   1.368       .  A
N1548      C1552   1.371       .  A
N1548      C1549   1.365       .  A
C1549      C1550   1.375       .  A
C1549      C1575   1.484       .  S
C1550      C1551   1.361       .  A
C1550      H1553   1.083   1_565  S
C1551      C1552   1.387       .  A
C1552      C1623   1.493       .  S
H1554      C2451   1.082       .  S
O1555      C1571   1.285       .  A
O1555     Zn1561   2.089       .  S
C1556      O1572   1.288       .  A
C1556      O1569   1.284       .  A
O1557      C1570   1.280       .  A
O1557     Cd1564   2.089   1_554  S
O1558     Cd2467   2.087       .  S
O1559      C1573   1.270       .  A
O1559     Cd1563   2.036       .  S
O1560      C1571   1.273       .  A
O1560     Cd1563   2.030   1_554  S
Zn1561     O1572   2.114       .  S
Zn1561     O1566   1.942       .  S
O1562      C1573   1.276       .  A
O1562     Cd1567   2.123       .  S
Cd1563     O1566   1.951   1_556  S
Cd1564     O2468   2.121       .  S
Cd1564     O1577   2.035       .  S
Cd1564     O1866   1.999   1_566  S
O1565      C1575   1.273   1_545  A
O1566     Cd1567   2.009   1_554  S
Cd1567     O1569   2.111   1_556  S
O1568      C1575   1.278       .  A
C1570      O1574   1.289       .  A
O1574     Zn1861   2.124   1_565  S
C1576      O1577   1.271       .  A
N1578      C1582   1.360       .  A
N1578      C1579   1.352       .  A
N1578      C1601   1.427       .  S
C1579      C1580   1.383       .  A
C1579      C1621   1.487       .  S
C1580      C1581   1.365       .  A
C1580      H1583   1.076       .  S
C1581      C1582   1.380       .  A
C1581      H1584   1.083       .  S
C1582      C1671   1.452       .  S
N1585      C1589   1.361       .  A
N1585      C1599   1.429       .  S
C1586      C1587   1.390       .  A
C1586      C1656   1.494       .  S
C1587      H1590   1.083       .  S
C1588      C1589   1.379       .  A
C1588      H1591   1.082       .  S
C1589      C1620   1.462       .  S
N1592      C1596   1.358       .  A
N1592      C1593   1.356       .  A
N1592      C1603   1.433       .  S
C1593      C1594   1.377       .  A
C1594      C1595   1.365       .  A
C1594      H1597   1.082       .  S
C1595      C1596   1.385       .  A
C1595      H1598   1.083       .  S
C1596      C1670   1.463       .  S
C1599      N1604   1.364       .  A
C1601      N2500   1.338       .  A
N1602      C2503   1.367       .  A
C1603      N1604   1.368       .  A
O1605      C1621   1.262       .  A
O1605     Zn1611   1.920       .  S
C1606      C2493   1.475       .  S
C1606      O1622   1.264       .  A
C1606      O2519   1.280       .  A
O1607      C1620   1.276       .  A
O1607     Cd1614   2.087       .  S
O1608      C1626   1.277       .  A
O1608     Cd1617   2.039       .  S
O1609      C2523   1.284       .  A
O1609     Cd1613   2.097       .  S
O1610      C1621   1.291       .  A
O1610     Cd1613   2.180       .  S
Zn1611     O1622   1.966       .  S
Zn1611     O1624   1.955       .  S
Zn1611     O1616   1.870       .  S
O1612      C1623   1.279       .  A
Cd1613     O1615   2.136       .  S
Cd1613     O1616   1.970       .  S
Cd1614     O1618   2.068       .  S
Cd1614     O1627   2.081       .  S
Cd1614     O1616   1.982       .  S
O1615      C1625   1.289       .  A
O1616     Cd1617   1.987       .  S
Cd1617     O2512   2.123       .  S
Cd1617     O2519   2.125       .  S
O1618      C1625   1.279       .  A
C1620      O1624   1.262       .  A
C1626      O1627   1.275       .  A
N1628      C1632   1.366       .  A
N1628      C1629   1.350       .  A
N1628      C1649   1.440       .  S
C1629      C1630   1.373       .  A
C1629      C1675   1.478       .  S
C1630      C1631   1.370       .  A
C1630      H1633   1.072       .  S
C1631      C1632   1.385       .  A
C1631      H1634   1.083       .  S
C1632      C1720   1.491       .  S
N1635      C1639   1.361       .  A
N1635      C1636   1.350       .  A
C1636      C1637   1.381       .  A
C1636      C1676   1.468       .  S
C1637      C1638   1.360       .  A
C1637      H1640   1.077       .  S
C1638      C1639   1.378       .  A
C1638      H1641   1.083       .  S
C1639      C1706   1.466       .  S
N1642      C1646   1.364       .  A
N1642      C1643   1.354       .  A
N1642      C1651   1.431       .  S
C1644      C1645   1.371       .  A
C1644      H1647   1.075       .  S
C1645      H1648   1.082       .  S
C1646      C1721   1.490       .  S
C1649      N1650   1.349       .  A
C1649      N1654   1.367       .  A
N1650      C1651   1.364       .  A
C1651      N1652   1.352       .  A
N1652      C1653   1.364       .  A
C1653      N1654   1.356       .  A
C1653      N2535   1.440       .  S
O1655      C1671   1.269       .  A
O1655     Zn1661   1.948       .  S
C1656      O1672   1.269       .  A
C1656      O1669   1.292       .  A
O1657      C1670   1.273       .  A
O1657     Cd1664   2.056       .  S
O1658      C1676   1.285       .  A
O1658     Cd1667   2.127       .  S
O1659      C1673   1.272       .  A
O1659     Cd1663   2.049       .  S
O1660      C1671   1.279       .  A
O1660     Cd1663   2.084       .  S
Zn1661     O1672   1.959       .  S
Zn1661     O1674   2.020       .  S
Zn1661     O1666   1.861       .  S
O1662      C1673   1.280       .  A
O1662     Cd1667   2.102       .  S
Cd1663     O1665   2.075       .  S
Cd1663     O1666   1.975       .  S
Cd1664     O1668   2.073       .  S
Cd1664     O1677   1.991       .  S
Cd1664     O1666   1.969       .  S
O1665      C1675   1.273       .  A
O1666     Cd1667   2.004       .  S
Cd1667     O1669   2.190       .  S
O1668      C1675   1.277       .  A
C1670      O1674   1.274       .  A
C1676      O1677   1.264       .  A
N1678      C1682   1.367       .  A
N1678      C1679   1.373       .  A
N1678      C1703   1.445       .  S
C1679      C1680   1.380       .  A
C1679      C1799   1.478       .  S
C1680      C1681   1.358       .  A
C1680      H1683   1.083       .  S
C1681      C1682   1.385       .  A
C1681      H1684   1.083       .  S
C1682      C1723   1.481       .  S
N1685      C1689   1.353       .  A
N1685      C1686   1.359       .  A
N1685      C1701   1.444       .  S
C1686      C1687   1.386       .  A
C1686      C1798   1.464       .  S
C1687      C1688   1.361       .  A
C1688      C1689   1.374       .  A
C1688      H1691   1.076       .  S
C1689      C1725   1.466       .  S
H1690      C2587   1.083       .  S
N1692      C1693   1.365       .  A
N1692      C1699   1.444       .  S
C1693      C1726   1.483       .  S
C1694      C1695   1.362       .  A
C1694      H1697   1.083       .  S
C1695      C1696   1.388       .  A
C1695      H1698   1.082       .  S
C1696      C1796   1.494       .  S
C1699      N1700   1.370       .  A
C1699      N1704   1.371       .  A
N1700      C1701   1.355       .  A
C1701      N1702   1.350       .  A
N1702      C1703   1.356       .  A
C1703      N1704   1.368       .  A
O1705      C1721   1.285       .  A
O1705     Zn2611   2.086       .  S
C1706      O1722   1.284       .  A
C1706      O1719   1.271       .  A
O1707      C1720   1.282       .  A
O1707     Cd1714   2.099       .  S
O1708      C1726   1.274       .  A
O1708     Cd1717   2.066       .  S
O1709      C1723   1.275       .  A
O1710      C1721   1.283       .  A
O1710     Cd1713   2.105       .  S
Zn1711     O1724   2.091       .  S
Zn1711     O1716   1.934       .  S
O1712      C1723   1.270       .  A
O1712     Cd2617   2.036       .  S
Cd1713     O2615   2.107       .  S
Cd1713     O2616   2.010       .  S
Cd1714     O1718   2.038       .  S
Cd1714     O1727   2.111       .  S
Cd1714     O1716   1.989       .  S
O1715      C1725   1.281       .  A
Cd1717     O1719   2.026       .  S
O1718      C1725   1.270       .  A
C1720      O1724   1.286       .  A
N1728      C1729   1.355       .  A
N1728      C2649   1.432       .  S
C1729      C1730   1.377       .  A
C1729      C1794   1.477       .  S
C1730      H1733   1.082       .  S
C1731      C1732   1.386       .  A
C1731      H1734   1.083       .  S
C1732      C1770   1.467   1_545  S
N1735      C1739   1.363       .  A
N1735      C1736   1.364       .  A
N1735      C1751   1.445       .  S
C1736      C1737   1.381       .  A
C1736      C1756   1.459       .  S
C1737      C1738   1.364       .  A
C1737      H1740   1.083       .  S
C1738      C1739   1.382       .  A
C1738      H1741   1.080       .  S
C1739      C1779   1.492       .  S
N1742      C1746   1.361       .  A
N1742      C1743   1.371       .  A
N1742      C1753   1.439       .  S
C1743      C1744   1.392       .  A
C1743      C1771   1.490       .  S
C1744      C1745   1.368       .  A
C1744      H1747   1.084       .  S
C1745      C1746   1.377       .  A
C1745      H1748   1.083       .  S
C1749      N1750   1.370       .  A
N1750      C1751   1.364       .  A
C1751      N1752   1.346       .  A
C1753      N1754   1.367       .  A
O1755      C1771   1.270       .  A
O1755     Zn1761   1.975       .  S
C1756      O1772   1.271       .  A
C1756      O1769   1.280       .  A
O1757      C1770   1.274       .  A
O1757     Cd1764   2.058       .  S
O1758      C1776   1.274       .  A
O1758     Cd1767   2.076       .  S
O1759      C1773   1.279       .  A
O1759     Cd1763   2.096       .  S
O1760      C1771   1.290       .  A
O1760     Cd1763   2.175       .  S
Zn1761     O1772   1.969       .  S
Zn1761     O1774   2.030       .  S
Zn1761     O1766   1.872       .  S
O1762      C1773   1.273       .  A
O1762     Cd1767   2.049       .  S
Cd1763     O1765   2.121       .  S
Cd1763     O1766   2.004       .  S
Cd1764     O1768   2.010       .  S
Cd1764     O1777   2.066       .  S
Cd1764     O1766   1.970       .  S
O1765      C1775   1.283       .  A
O1766     Cd1767   1.975       .  S
Cd1767     O1769   2.092       .  S
O1768      C1775   1.266       .  A
C1770      O1774   1.277       .  A
C1776      O1777   1.276       .  A
O1778      C1794   1.266       .  A
O1778     Zn1784   1.968       .  S
C1779      O1795   1.266       .  A
C1779      O1792   1.285       .  A
O1781      C1799   1.286       .  A
O1781     Cd1790   2.122       .  S
O1782      C1796   1.281       .  A
O1782     Cd1786   2.131       .  S
O1783      C1794   1.281       .  A
O1783     Cd1786   2.127       .  S
Zn1784     O1795   1.949       .  S
Zn1784     O1797   1.965       .  S
Zn1784     O1789   1.880       .  S
O1785      C1796   1.279       .  A
O1785     Cd1790   2.066       .  S
Cd1786     O1788   2.068       .  S
Cd1786     O1789   1.996       .  S
Cd1787     O2680   2.078       .  S
Cd1787     O2691   2.081       .  S
Cd1787     O1800   2.074       .  S
Cd1787     O1789   1.985       .  S
O1788      C2698   1.280       .  A
O1789     Cd1790   1.984       .  S
Cd1790     O1792   2.164       .  S
O1791      C1798   1.277       .  A
C1793      C2646   1.461       .  S
C1793      O2680   1.275       .  A
C1793      O1797   1.265       .  A
C1799      O1800   1.279       .  A
N1801      C1805   1.366       .  A
N1801      C1802   1.360       .  A
C1802      C1803   1.375       .  A
C1802      C2073   1.484       .  S
C1803      C1804   1.371       .  A
C1803      H1806   1.074       .  S
C1804      C1805   1.382       .  A
C1804      H1807   1.082       .  S
C1805      C1856   1.496       .  S
N1808      C1812   1.367       .  A
N1808      C1809   1.351       .  A
N1808      C1822   1.441       .  S
C1809      C1810   1.375       .  A
C1809      C2076   1.477       .  S
C1810      C1811   1.370       .  A
C1810      H1813   1.075       .  S
C1811      C1812   1.385       .  A
C1811      H1814   1.083       .  S
C1812      C1870   1.494       .  S
N1815      C1819   1.361       .  A
N1815      C2416   1.350   1_545  A
N1815      C1824   1.440       .  S
C1816      N2115   1.351       .  A
C1816      C1817   1.379       .  A
C1816      C2075   1.471       .  S
C1817      C1818   1.362       .  A
C1817      H1820   1.075       .  S
C1818      C2119   1.379       .  A
C1818      H1821   1.083       .  S
C1819      C2418   1.379   1_545  A
C1819      C1871   1.465       .  S
C1822      N1823   1.367       .  A
C1822      N1827   1.349       .  A
N1823      C1824   1.357       .  A
C1824      N1825   1.365       .  A
N1825      C1826   1.352       .  A
C1826      N1827   1.365       .  A
N1828      C2132   1.361       .  A
N1828      C1829   1.358       .  A
N1828      C1844   1.448       .  S
C1829      C2130   1.374       .  A
C1829      C1876   1.466       .  S
C1830      C2429   1.371       .  A
C1830      C1831   1.355       .  A
C1830      H1833   1.074   1_655  S
C1831      C1832   1.385       .  A
C1831      H1834   1.083       .  S
C1832      N2428   1.362       .  A
C1832      C1926   1.468   1_565  S
N1835      C1839   1.367       .  A
N1835      C1836   1.376       .  A
N1835      C1846   1.443       .  S
C1836      C1837   1.383       .  A
C1836      C1925   1.484       .  S
C1837      C1838   1.361       .  A
C1837      H1840   1.083       .  S
C1838      C1839   1.382       .  A
C1838      H1841   1.083       .  S
C1839      C1873   1.484       .  S
C1842      N1843   1.371       .  A
C1842      N1847   1.370       .  A
C1842      N1848   1.446       .  S
N1843      C1844   1.356       .  A
C1844      N1845   1.351       .  A
N1845      C1846   1.357       .  A
C1846      N1847   1.368       .  A
N1848      C1852   1.374       .  A
N1848      C1849   1.367       .  A
C1849      C1850   1.376       .  A
C1849      C1875   1.492       .  S
C1850      C1851   1.363       .  A
C1850      H1853   1.083       .  S
C1851      C1852   1.387       .  A
C1852      C1923   1.499       .  S
O1855      C1871   1.284       .  A
O1855     Zn1861   2.082       .  S
C1856      O1872   1.287       .  A
C1856      O1869   1.283       .  A
O1857      C1870   1.280       .  A
O1857     Cd1864   2.094   1_654  S
O1858      C2476   1.280   1_545  A
O1859      C1873   1.269       .  A
O1859     Cd1863   2.038       .  S
O1860      C1871   1.273       .  A
O1860     Cd1863   2.027   1_554  S
Zn1861     O1872   2.105       .  S
Zn1861     O1866   1.951       .  S
O1862      C1873   1.276       .  A
O1862     Cd1867   2.130       .  S
Cd1863     O2465   2.080       .  S
Cd1863     O1866   1.959   1_556  S
Cd1864     O1877   2.040   1_455  S
O1865      C1875   1.274       .  A
O1865     Cd2163   2.080       .  S
O1866     Cd1867   2.010   1_554  S
Cd1867     O1869   2.107   1_556  S
O1868      C1875   1.278       .  A
C1870      O1874   1.287       .  A
C1876      O2158   1.280       .  A
C1876      O1877   1.271       .  A
N1878      C1882   1.360       .  A
N1878      C1879   1.351       .  A
N1878      C1901   1.422       .  S
C1879      C1880   1.381       .  A
C1879      C1921   1.485       .  S
C1880      C1881   1.365       .  A
C1880      H1883   1.077       .  S
C1881      C1882   1.383       .  A
C1881      H1884   1.084       .  S
C1882      C1971   1.447       .  S
N1885      C1889   1.365       .  A
N1885      C2486   1.365       .  A
N1885      C1899   1.427   1_565  S
C1886      N2185   1.365       .  A
C1886      C1887   1.385       .  A
C1886      C1956   1.490       .  S
C1887      C2188   1.364       .  A
C1887      H1890   1.083       .  S
C1888      C2487   1.358       .  A
C1888      C1889   1.383       .  A
C1888      H1891   1.083       .  S
C1889      C1920   1.462   1_565  S
N1892      C1896   1.359       .  A
N1892      C1893   1.354       .  A
N1892      C1903   1.432       .  S
C1893      C1894   1.377       .  A
C1894      C1895   1.366       .  A
C1894      H1897   1.082       .  S
C1895      C1896   1.385       .  A
C1895      H1898   1.083       .  S
C1896      C1970   1.463       .  S
C1899      N2500   1.347   1_545  A
C1899      N1904   1.364       .  A
N1900      C2199   1.350       .  A
C1901      N2202   1.348       .  A
N1902      C2501   1.348       .  A
C1903      N1904   1.368       .  A
O1905      C1921   1.261       .  A
O1905     Zn1911   1.918       .  S
C1906      O1922   1.266       .  A
O1907      C1920   1.277       .  A
O1907     Cd1914   2.072       .  S
O1908      C1926   1.278       .  A
O1908     Cd1917   2.043       .  S
O1909     Cd1913   2.093   1_455  S
O1910      C1921   1.291       .  A
O1910     Cd1913   2.179       .  S
Zn1911     O1922   1.971       .  S
Zn1911     O1924   1.968       .  S
Zn1911     O1916   1.861       .  S
O1912      C1923   1.280       .  A
Cd1913     O1915   2.144       .  S
Cd1913     O1916   1.961       .  S
Cd1914     O1918   2.066       .  S
Cd1914     O1927   2.080       .  S
Cd1914     O1916   1.971       .  S
O1915      C1925   1.289       .  A
O1916     Cd1917   1.983       .  S
O1918      C1925   1.277       .  A
C1920      O1924   1.264       .  A
C1926      O1927   1.276       .  A
N1928      C1932   1.366       .  A
N1928      C1929   1.348       .  A
N1928      C1949   1.439       .  S
C1929      C1930   1.374       .  A
C1929      C1975   1.476       .  S
C1930      C1931   1.372       .  A
C1930      H1933   1.074       .  S
C1931      C1932   1.386       .  A
C1931      H1934   1.083       .  S
C1932      C2020   1.494       .  S
N1935      C1939   1.362       .  A
N1935      C1936   1.349       .  A
C1936      C1937   1.381       .  A
C1936      C1976   1.469       .  S
C1937      C1938   1.360       .  A
C1937      H1940   1.076       .  S
C1938      C1939   1.378       .  A
C1938      H1941   1.083       .  S
C1939      C2006   1.471       .  S
N1942      C1946   1.364       .  A
N1942      C1943   1.355       .  A
N1942      C1951   1.430       .  S
C1943      C2544   1.375   1_545  A
C1943      C2573   1.479   1_545  S
C1944      C2243   1.375       .  A
C1944      C1945   1.372       .  A
C1944      H1947   1.074       .  S
C1945      C2246   1.382       .  A
C1945      H1948   1.082       .  S
C1946      C2545   1.381   1_545  A
C1946      C2021   1.486       .  S
C1949      N1950   1.346       .  A
C1949      N1954   1.367       .  A
N1950      C1951   1.362       .  A
C1951      N1952   1.354       .  A
N1952      C1953   1.366       .  A
C1953      N1954   1.357       .  A
O1955      C1971   1.266       .  A
O1955     Zn1961   1.919       .  S
C1956      O1972   1.266       .  A
C1956      O1969   1.293       .  A
O1957      C1970   1.273       .  A
O1957     Cd1964   2.060       .  S
O1958      C1976   1.287       .  A
O1958     Cd1967   2.132       .  S
O1959      C1973   1.275       .  A
O1959     Cd1963   2.053       .  S
O1960      C1971   1.280       .  A
O1960     Cd1963   2.094       .  S
Zn1961     O1972   1.935       .  S
Zn1961     O1974   2.005       .  S
Zn1961     O1966   1.846       .  S
O1962      C1973   1.278       .  A
O1962     Cd1967   2.091       .  S
Cd1963     O1965   2.074       .  S
Cd1963     O1966   1.975       .  S
Cd1964     O1968   2.069       .  S
Cd1964     O1977   1.981       .  S
Cd1964     O1966   1.965       .  S
O1965      C1975   1.272       .  A
O1966     Cd1967   1.996       .  S
Cd1967     O1969   2.194       .  S
O1968      C1975   1.278       .  A
C1970      O1974   1.272       .  A
C1973      C2243   1.479       .  S
C1976      O1977   1.263       .  A
N1978      C1982   1.364       .  A
N1978      C1979   1.369       .  A
N1978      C2003   1.440       .  S
C1979      C1980   1.380       .  A
C1979      C2099   1.475       .  S
C1980      C1981   1.358       .  A
C1980      H1983   1.083       .  S
C1981      C1982   1.384       .  A
C1981      H1984   1.083       .  S
C1982      C2023   1.477       .  S
N1985      C1989   1.354       .  A
N1985      C1986   1.362       .  A
N1985      C2001   1.446       .  S
C1986      C1987   1.385       .  A
C1986      C2098   1.471       .  S
C1987      C1988   1.359       .  A
C1988      C1989   1.371       .  A
C1988      H1991   1.073       .  S
C1989      C2025   1.462       .  S
N1992      C2296   1.369       .  A
N1992      C1993   1.363       .  A
N1992      C1999   1.442       .  S
C1993      C2294   1.375       .  A
C1993      C2026   1.482       .  S
C1994      C2593   1.376       .  A
C1994      C1995   1.363       .  A
C1994      H1997   1.083       .  S
C1995      C1996   1.388       .  A
C1995      H1998   1.083       .  S
C1996      N2592   1.370       .  A
C1996      C2096   1.493   1_565  S
C1999      N2000   1.370       .  A
C1999      N2004   1.369       .  A
N2000      C2001   1.353       .  A
C2001      N2002   1.352       .  A
N2002      C2003   1.355       .  A
C2003      N2004   1.366       .  A
O2005      C2021   1.284       .  A
C2006      O2022   1.284       .  A
C2006      O2019   1.271       .  A
O2007      C2020   1.281       .  A
O2007     Cd2014   2.095       .  S
O2008      C2026   1.273       .  A
O2008     Cd2017   2.059       .  S
O2009      C2023   1.275       .  A
O2009     Cd2313   2.117       .  S
O2010      C2021   1.284       .  A
O2010     Cd2013   2.106       .  S
Zn2011     O2622   2.077   1_545  S
Zn2011     O2024   2.105       .  S
Zn2011     O2016   1.938   1_545  S
O2012      C2023   1.268       .  A
Cd2013     O2609   2.122   1_545  S
Cd2014     O2018   2.035       .  S
Cd2014     O2027   2.112   1_545  S
Cd2014     O2016   1.998   1_545  S
O2015      C2025   1.279       .  A
O2016     Cd2617   1.951       .  S
Cd2017     O2019   2.032       .  S
Cd2017     O2316   1.955       .  S
O2018      C2025   1.270       .  A
C2020      O2024   1.287       .  A
O2022     Zn2311   2.095       .  S
C2026      O2327   1.280       .  A
O2027      C2626   1.279       .  A
N2028      C2632   1.357       .  A
N2028      C2029   1.355       .  A
C2029      C2030   1.377       .  A
C2029      C2094   1.476       .  S
C2030      C2631   1.368       .  A
C2030      H2033   1.082       .  S
C2031      C2330   1.362       .  A
C2031      C2032   1.386       .  A
C2031      H2034   1.083       .  S
C2032      N2328   1.366       .  A
C2032      C2070   1.473       .  S
N2035      C2039   1.349       .  A
N2035      C2036   1.359       .  A
N2035      C2051   1.430       .  S
C2036      C2037   1.381       .  A
C2036      C2056   1.448       .  S
C2037      C2038   1.363       .  A
C2037      H2040   1.083       .  S
C2038      C2039   1.381       .  A
C2038      H2041   1.077       .  S
C2039      C2079   1.473       .  S
N2042      C2046   1.361       .  A
N2042      C2043   1.369       .  A
N2042      C2053   1.434       .  S
C2043      C2044   1.392       .  A
C2043      C2071   1.496       .  S
C2044      C2045   1.365       .  A
C2044      H2047   1.083       .  S
C2045      C2046   1.377       .  A
C2045      H2048   1.082       .  S
C2049      N2050   1.366       .  A
C2049      N2654   1.365   1_545  A
N2050      C2051   1.349       .  A
C2051      N2052   1.342       .  A
N2052      C2653   1.351   1_545  A
C2053      N2352   1.354       .  A
C2053      N2054   1.364       .  A
N2054      C2349   1.368       .  A
O2055      C2071   1.269       .  A
O2055     Zn2061   1.948       .  S
C2056      O2072   1.271       .  A
C2056      O2069   1.276       .  A
O2057      C2070   1.275       .  A
O2057     Cd2064   2.064       .  S
O2058      C2076   1.272       .  A
O2058     Cd2067   2.069       .  S
O2059      C2073   1.279       .  A
O2059     Cd2063   2.101       .  S
O2060      C2071   1.292       .  A
O2060     Cd2063   2.189       .  S
Zn2061     O2072   1.953       .  S
Zn2061     O2074   2.035       .  S
Zn2061     O2066   1.873       .  S
O2062      C2073   1.271       .  A
O2062     Cd2067   2.051       .  S
Cd2063     O2065   2.117       .  S
Cd2063     O2066   2.007       .  S
Cd2064     O2068   2.002       .  S
Cd2064     O2077   2.077       .  S
Cd2064     O2066   1.977       .  S
O2065      C2075   1.285       .  A
O2066     Cd2067   1.986       .  S
Cd2067     O2069   2.065       .  S
O2068      C2075   1.266       .  A
C2070      O2074   1.274       .  A
C2076      O2077   1.277       .  A
O2078      C2094   1.268       .  A
O2078     Zn2084   1.968       .  S
C2079      O2095   1.258       .  A
C2079      O2092   1.285       .  A
O2081      C2099   1.286       .  A
O2081     Cd2090   2.123       .  S
O2082      C2096   1.279       .  A
O2082     Cd2086   2.122       .  S
O2083      C2094   1.279       .  A
O2083     Cd2086   2.110       .  S
Zn2084     O2095   1.892       .  S
Zn2084     O2097   1.965       .  S
Zn2084     O2089   1.882       .  S
O2085      C2096   1.279       .  A
O2085     Cd2090   2.073       .  S
Cd2086     O2088   2.057       .  S
Cd2086     O2089   1.988       .  S
Cd2087     O2100   2.064       .  S
Cd2087     O2089   1.970       .  S
O2089     Cd2090   1.984       .  S
Cd2090     O2092   2.147       .  S
O2091      C2098   1.276       .  A
C2093      O2097   1.263   1_455  A
C2099      O2100   1.278       .  A
N2101      C2105   1.368       .  A
N2101      C2102   1.359       .  A
C2102      C2103   1.377       .  A
C2102      C2373   1.488       .  S
C2103      C2104   1.372       .  A
C2103      H2106   1.076       .  S
C2104      C2105   1.381       .  A
C2104      H2107   1.083       .  S
C2105      C2156   1.500       .  S
N2108      C2112   1.365       .  A
N2108      C2109   1.350       .  A
N2108      C2122   1.438       .  S
C2109      C2110   1.372       .  A
C2109      C2376   1.474       .  S
C2110      C2111   1.369       .  A
C2110      H2113   1.071       .  S
C2111      C2112   1.383       .  A
C2111      H2114   1.083       .  S
C2112      C2170   1.489       .  S
N2115      C2119   1.362       .  A
N2115      C2124   1.438       .  S
C2116      N2415   1.355       .  A
C2116      C2117   1.381       .  A
C2116      C2375   1.476       .  S
C2117      C2118   1.360       .  A
C2117      H2120   1.077       .  S
C2118      C2419   1.378       .  A
C2118      H2121   1.083       .  S
C2119      C2171   1.471       .  S
C2122      N2123   1.368       .  A
C2122      N2127   1.349       .  A
N2123      C2124   1.356       .  A
C2124      N2125   1.363       .  A
N2125      C2126   1.348       .  A
C2126      N2127   1.364       .  A
N2128      C2432   1.363       .  A
N2128      C2129   1.356       .  A
N2128      C2144   1.447       .  S
C2129      C2430   1.373       .  A
C2129      C2176   1.466       .  S
C2130      C2131   1.357       .  A
C2130      H2133   1.076   1_655  S
C2131      C2132   1.383       .  A
C2131      H2134   1.083       .  S
C2132      C2226   1.467       .  S
N2135      C2139   1.368       .  A
N2135      C2136   1.377       .  A
N2135      C2146   1.446       .  S
C2136      C2137   1.383       .  A
C2136      C2225   1.485       .  S
C2137      C2138   1.361       .  A
C2137      H2140   1.083       .  S
C2138      C2139   1.383       .  A
C2138      H2141   1.083       .  S
C2139      C2173   1.486       .  S
C2142      N2143   1.370       .  A
C2142      N2147   1.371       .  A
C2142      N2148   1.445       .  S
N2143      C2144   1.354       .  A
C2144      N2145   1.351       .  A
N2145      C2146   1.358       .  A
C2146      N2147   1.369       .  A
N2148      C2152   1.372       .  A
N2148      C2149   1.367       .  A
C2149      C2150   1.376       .  A
C2149      C2175   1.491       .  S
C2150      C2151   1.363       .  A
C2150      H2153   1.083       .  S
C2151      C2152   1.386       .  A
C2152      C2223   1.494       .  S
O2155      C2171   1.285       .  A
O2155     Zn2161   2.089       .  S
C2156      O2172   1.287       .  A
C2156      O2169   1.284       .  A
O2157      C2170   1.279       .  A
O2157     Cd2164   2.088   1_654  S
O2159      C2173   1.272       .  A
O2159     Cd2163   2.044       .  S
O2160      C2171   1.275       .  A
O2160     Cd2163   2.044   1_554  S
Zn2161     O2172   2.110       .  S
Zn2161     O2166   1.950       .  S
O2162      C2173   1.276       .  A
O2162     Cd2167   2.125       .  S
Cd2163     O2166   1.962   1_556  S
Cd2164     O2177   2.036   1_455  S
O2165      C2175   1.275       .  A
O2165     Cd2463   2.082       .  S
O2166     Cd2167   2.009   1_554  S
Cd2167     O2169   2.111   1_556  S
O2168      C2175   1.279       .  A
C2170      O2174   1.287       .  A
C2176      O2458   1.280       .  A
C2176      O2177   1.270       .  A
N2178      C2182   1.360       .  A
N2178      C2179   1.350       .  A
N2178      C2201   1.425       .  S
C2179      C2180   1.383       .  A
C2179      C2221   1.486       .  S
C2180      C2181   1.369       .  A
C2180      H2183   1.078       .  S
C2181      C2182   1.381       .  A
C2181      H2184   1.083       .  S
C2182      C2271   1.455       .  S
N2185      C2189   1.362       .  A
N2185      C2199   1.426       .  S
C2186      N2485   1.365       .  A
C2186      C2187   1.387       .  A
C2186      C2256   1.489       .  S
C2187      C2488   1.367       .  A
C2187      H2190   1.083       .  S
C2188      C2189   1.380       .  A
C2188      H2191   1.083       .  S
C2189      C2220   1.462       .  S
N2192      C2196   1.358       .  A
N2192      C2193   1.353       .  A
N2192      C2203   1.432       .  S
C2193      C2194   1.376       .  A
C2194      C2195   1.365       .  A
C2194      H2197   1.082       .  S
C2195      C2196   1.384       .  A
C2195      H2198   1.083       .  S
C2196      C2270   1.461       .  S
C2199      N2204   1.362       .  A
N2200      C2499   1.350       .  A
C2201      N2502   1.347       .  A
C2203      N2204   1.364       .  A
O2205      C2221   1.262       .  A
O2205     Zn2211   1.921       .  S
C2206      O2222   1.265       .  A
O2207      C2220   1.276       .  A
O2207     Cd2214   2.087       .  S
O2208      C2226   1.278       .  A
O2208     Cd2217   2.047       .  S
O2209     Cd2213   2.096   1_455  S
O2210      C2221   1.291       .  A
O2210     Cd2213   2.171       .  S
Zn2211     O2222   1.975       .  S
Zn2211     O2224   1.956       .  S
Zn2211     O2216   1.871       .  S
O2212      C2223   1.279       .  A
Cd2213     O2215   2.142       .  S
Cd2213     O2216   1.963       .  S
Cd2214     O2218   2.077       .  S
Cd2214     O2227   2.079       .  S
Cd2214     O2216   1.981       .  S
O2215      C2225   1.289       .  A
O2216     Cd2217   1.992       .  S
O2218      C2225   1.279       .  A
C2220      O2224   1.263       .  A
C2226      O2227   1.276       .  A
N2228      C2232   1.367       .  A
N2228      C2229   1.351       .  A
N2228      C2249   1.439       .  S
C2229      C2230   1.373       .  A
C2229      C2275   1.480       .  S
C2230      C2231   1.373       .  A
C2230      H2233   1.071       .  S
C2231      C2232   1.385       .  A
C2231      H2234   1.083       .  S
C2232      C2320   1.496       .  S
N2235      C2239   1.362       .  A
N2235      C2236   1.351       .  A
C2236      C2237   1.380       .  A
C2236      C2276   1.470       .  S
C2237      C2238   1.360       .  A
C2237      H2240   1.076       .  S
C2238      C2239   1.377       .  A
C2238      H2241   1.083       .  S
C2239      C2306   1.471       .  S
N2242      C2246   1.362       .  A
N2242      C2243   1.353       .  A
N2242      C2251   1.428       .  S
C2244      C2543   1.376       .  A
C2244      C2245   1.372       .  A
C2244      H2247   1.076       .  S
C2245      C2546   1.382       .  A
C2245      H2248   1.082       .  S
C2246      C2321   1.490       .  S
C2249      N2250   1.348       .  A
C2249      N2254   1.366       .  A
N2250      C2251   1.364       .  A
C2251      N2252   1.351       .  A
N2252      C2253   1.363       .  A
C2253      N2254   1.355       .  A
O2255      C2271   1.267       .  A
O2255     Zn2261   1.933       .  S
C2256      O2272   1.268       .  A
C2256      O2269   1.290       .  A
O2257      C2270   1.273       .  A
O2257     Cd2264   2.056       .  S
O2258      C2276   1.285       .  A
O2258     Cd2267   2.131       .  S
O2259      C2273   1.276       .  A
O2259     Cd2263   2.057       .  S
O2260      C2271   1.282       .  A
O2260     Cd2263   2.106       .  S
Zn2261     O2272   1.961       .  S
Zn2261     O2274   2.010       .  S
Zn2261     O2266   1.857       .  S
O2262      C2273   1.279       .  A
O2262     Cd2267   2.096       .  S
Cd2263     O2265   2.083       .  S
Cd2263     O2266   1.975       .  S
Cd2264     O2268   2.071       .  S
Cd2264     O2277   1.995       .  S
Cd2264     O2266   1.966       .  S
O2265      C2275   1.274       .  A
O2266     Cd2267   2.005       .  S
Cd2267     O2269   2.182       .  S
O2268      C2275   1.277       .  A
C2270      O2274   1.274       .  A
C2273      C2543   1.480       .  S
C2276      O2277   1.265       .  A
N2278      C2282   1.370       .  A
N2278      C2279   1.374       .  A
N2278      C2303   1.447       .  S
C2279      C2280   1.378       .  A
C2279      C2399   1.480       .  S
C2280      C2281   1.358       .  A
C2280      H2283   1.083       .  S
C2281      C2282   1.386       .  A
C2281      H2284   1.082       .  S
C2282      C2323   1.486       .  S
N2285      C2289   1.358       .  A
N2285      C2286   1.363       .  A
N2285      C2301   1.448       .  S
C2286      C2287   1.386       .  A
C2286      C2398   1.473       .  S
C2287      C2288   1.360       .  A
C2288      C2289   1.373       .  A
C2288      H2291   1.075       .  S
C2289      C2325   1.470       .  S
N2292      C2596   1.370       .  A
N2292      C2293   1.365       .  A
N2292      C2299   1.446       .  S
C2293      C2594   1.376       .  A
C2293      C2326   1.482       .  S
C2294      C2295   1.361       .  A
C2294      H2297   1.083       .  S
C2295      C2296   1.388       .  A
C2295      H2298   1.082       .  S
C2296      C2396   1.489       .  S
C2299      N2300   1.373       .  A
C2299      N2304   1.373       .  A
N2300      C2301   1.357       .  A
C2301      N2302   1.349       .  A
N2302      C2303   1.355       .  A
C2303      N2304   1.368       .  A
O2305      C2321   1.286       .  A
C2306      O2322   1.283       .  A
C2306      O2319   1.272       .  A
O2307      C2320   1.283       .  A
O2307     Cd2314   2.108       .  S
O2308      C2326   1.274       .  A
O2308     Cd2317   2.066       .  S
O2309      C2323   1.276       .  A
O2309     Cd2613   2.124       .  S
O2310      C2321   1.283       .  A
O2310     Cd2313   2.099       .  S
Zn2311     O2324   2.100       .  S
Zn2311     O2316   1.944       .  S
O2312      C2323   1.273       .  A
Cd2314     O2318   2.057       .  S
Cd2314     O2327   2.112       .  S
Cd2314     O2316   1.994       .  S
O2315      C2325   1.278       .  A
Cd2317     O2319   2.037       .  S
Cd2317     O2616   1.953       .  S
O2318      C2325   1.272       .  A
C2320      O2324   1.286       .  A
O2322     Zn2611   2.090       .  S
C2326      O2627   1.279       .  A
N2328      C2329   1.360       .  A
C2329      C2330   1.378       .  A
C2329      C2394   1.477       .  S
C2330      H2333   1.083       .  S
C2331      C2630   1.362       .  A
C2331      C2332   1.385       .  A
C2331      H2334   1.083       .  S
C2332      N2628   1.363       .  A
C2332      C2370   1.469       .  S
N2335      C2339   1.353       .  A
N2335      C2336   1.361       .  A
N2335      C2351   1.437       .  S
C2336      C2337   1.382       .  A
C2336      C2356   1.457       .  S
C2337      C2338   1.367       .  A
C2337      H2340   1.083       .  S
C2338      C2339   1.383       .  A
C2338      H2341   1.082       .  S
C2339      C2379   1.478       .  S
N2342      C2346   1.358       .  A
N2342      C2343   1.365       .  A
N2342      C2353   1.427       .  S
C2343      C2344   1.391       .  A
C2343      C2371   1.497       .  S
C2344      C2345   1.365       .  A
C2344      H2347   1.083       .  S
C2345      C2346   1.378       .  A
C2345      H2348   1.082       .  S
C2349      N2350   1.367       .  A
N2350      C2351   1.352       .  A
C2351      N2352   1.344       .  A
C2353      N2652   1.352       .  A
C2353      N2354   1.361       .  A
N2354      C2649   1.363       .  A
O2355      C2371   1.268       .  A
O2355     Zn2361   1.942       .  S
C2356      O2372   1.270       .  A
C2356      O2369   1.279       .  A
O2357      C2370   1.273       .  A
O2357     Cd2364   2.058       .  S
O2358      C2376   1.272       .  A
O2358     Cd2367   2.066       .  S
O2359      C2373   1.281       .  A
O2359     Cd2363   2.108       .  S
O2360      C2371   1.294       .  A
O2360     Cd2363   2.199       .  S
Zn2361     O2372   1.965       .  S
Zn2361     O2374   2.025       .  S
Zn2361     O2366   1.880       .  S
O2362      C2373   1.274       .  A
O2362     Cd2367   2.057       .  S
Cd2363     O2365   2.134       .  S
Cd2363     O2366   2.014       .  S
Cd2364     O2368   2.002       .  S
Cd2364     O2377   2.073       .  S
Cd2364     O2366   1.973       .  S
O2365      C2375   1.285       .  A
O2366     Cd2367   1.988       .  S
Cd2367     O2369   2.085       .  S
O2368      C2375   1.266       .  A
C2370      O2374   1.273       .  A
C2376      O2377   1.276       .  A
O2378      C2394   1.267       .  A
O2378     Zn2384   1.977       .  S
C2379      O2395   1.263       .  A
C2379      O2392   1.286       .  A
O2381      C2399   1.286       .  A
O2381     Cd2390   2.125       .  S
O2382      C2396   1.280       .  A
O2382     Cd2386   2.120       .  S
O2383      C2394   1.280       .  A
O2383     Cd2386   2.124       .  S
Zn2384     O2395   1.926       .  S
Zn2384     O2397   1.974       .  S
Zn2384     O2389   1.873       .  S
O2385      C2396   1.280       .  A
O2385     Cd2390   2.070       .  S
Cd2386     O2388   2.050       .  S
Cd2386     O2389   1.998       .  S
Cd2387     O2400   2.078       .  S
Cd2387     O2389   1.975       .  S
O2389     Cd2390   1.971       .  S
Cd2390     O2392   2.144       .  S
O2391      C2398   1.274       .  A
C2393      O2397   1.264   1_455  A
C2399      O2400   1.279       .  A
N2401      C2405   1.364       .  A
N2401      C2402   1.356       .  A
C2402      C2403   1.375       .  A
C2402      C2673   1.483       .  S
C2403      C2404   1.372       .  A
C2403      H2406   1.075       .  S
C2404      C2405   1.382       .  A
C2404      H2407   1.083       .  S
C2405      C2456   1.495       .  S
N2408      C2412   1.364       .  A
N2408      C2409   1.347       .  A
N2408      C2422   1.437       .  S
C2409      C2410   1.372       .  A
C2409      C2676   1.475       .  S
C2410      C2411   1.371       .  A
C2410      H2413   1.069       .  S
C2411      C2412   1.384       .  A
C2411      H2414   1.083       .  S
C2412      C2470   1.491       .  S
N2415      C2419   1.364       .  A
N2415      C2424   1.442       .  S
C2416      C2417   1.380       .  A
C2416      C2675   1.467       .  S
C2417      C2418   1.358       .  A
C2417      H2420   1.077       .  S
C2418      H2421   1.083       .  S
C2419      C2471   1.472       .  S
C2422      N2423   1.368       .  A
C2422      N2427   1.345       .  A
N2423      C2424   1.358       .  A
C2424      N2425   1.365       .  A
N2425      C2426   1.353       .  A
C2426      N2427   1.360       .  A
N2428      C2429   1.356       .  A
N2428      C2444   1.445       .  S
C2429      C2476   1.461       .  S
C2430      C2431   1.357       .  A
C2430      H2433   1.075   1_655  S
C2431      C2432   1.384       .  A
C2431      H2434   1.083       .  S
C2432      C2526   1.470       .  S
N2435      C2439   1.370       .  A
N2435      C2436   1.376       .  A
N2435      C2446   1.449       .  S
C2436      C2437   1.382       .  A
C2436      C2525   1.483       .  S
C2437      C2438   1.359       .  A
C2437      H2440   1.083       .  S
C2438      C2439   1.385       .  A
C2438      H2441   1.083       .  S
C2439      C2473   1.487       .  S
C2442      N2443   1.370       .  A
C2442      N2447   1.374       .  A
C2442      N2448   1.448       .  S
N2443      C2444   1.353       .  A
C2444      N2445   1.350       .  A
N2445      C2446   1.357       .  A
C2446      N2447   1.371       .  A
N2448      C2452   1.376       .  A
N2448      C2449   1.369       .  A
C2449      C2450   1.376       .  A
C2449      C2475   1.492       .  S
C2450      C2451   1.362       .  A
C2450      H2453   1.083   1_565  S
C2451      C2452   1.387       .  A
C2452      C2523   1.499       .  S
O2455      C2471   1.284       .  A
O2455     Zn2461   2.085       .  S
C2456      O2472   1.286       .  A
C2456      O2469   1.282       .  A
O2457      C2470   1.279       .  A
O2457     Cd2464   2.080   1_654  S
O2459      C2473   1.273       .  A
O2459     Cd2463   2.048       .  S
O2460      C2471   1.275       .  A
O2460     Cd2463   2.048   1_554  S
Zn2461     O2472   2.101       .  S
Zn2461     O2466   1.955       .  S
O2462      C2473   1.275       .  A
O2462     Cd2467   2.124       .  S
Cd2463     O2466   1.965   1_556  S
Cd2464     O2477   2.032   1_455  S
O2465      C2475   1.275   1_545  A
O2466     Cd2467   2.012   1_554  S
Cd2467     O2469   2.101   1_556  S
O2468      C2475   1.279       .  A
C2470      O2474   1.287       .  A
C2476      O2477   1.270       .  A
N2478      C2482   1.361       .  A
N2478      C2479   1.351       .  A
N2478      C2501   1.425       .  S
C2479      C2480   1.382       .  A
C2479      C2521   1.486       .  S
C2480      C2481   1.366       .  A
C2480      H2483   1.078       .  S
C2481      C2482   1.381       .  A
C2481      H2484   1.083       .  S
C2482      C2571   1.455       .  S
N2485      C2489   1.359       .  A
N2485      C2499   1.427       .  S
C2486      C2487   1.383       .  A
C2486      C2556   1.490       .  S
C2487      H2490   1.083       .  S
C2488      C2489   1.380       .  A
C2488      H2491   1.083       .  S
C2489      C2520   1.462       .  S
N2492      C2496   1.361       .  A
N2492      C2493   1.355       .  A
N2492      C2503   1.434       .  S
C2493      C2494   1.376       .  A
C2494      C2495   1.366       .  A
C2494      H2497   1.082       .  S
C2495      C2496   1.386       .  A
C2495      H2498   1.083       .  S
C2496      C2570   1.467       .  S
C2499      N2504   1.363       .  A
C2503      N2504   1.365       .  A
O2505      C2521   1.260       .  A
O2505     Zn2511   1.914       .  S
C2506      O2522   1.267       .  A
O2507      C2520   1.275       .  A
O2507     Cd2514   2.087       .  S
O2508      C2526   1.279       .  A
O2508     Cd2517   2.055       .  S
O2509     Cd2513   2.078   1_455  S
O2510      C2521   1.289       .  A
O2510     Cd2513   2.173       .  S
Zn2511     O2522   1.969       .  S
Zn2511     O2524   1.955       .  S
Zn2511     O2516   1.867       .  S
O2512      C2523   1.279       .  A
Cd2513     O2515   2.134       .  S
Cd2513     O2516   1.970       .  S
Cd2514     O2518   2.081       .  S
Cd2514     O2527   2.079       .  S
Cd2514     O2516   1.980       .  S
O2515      C2525   1.288       .  A
O2516     Cd2517   1.986       .  S
O2518      C2525   1.280       .  A
C2520      O2524   1.262       .  A
C2526      O2527   1.275       .  A
N2528      C2532   1.362       .  A
N2528      C2529   1.347       .  A
N2528      C2549   1.436       .  S
C2529      C2530   1.374       .  A
C2529      C2575   1.475       .  S
C2530      C2531   1.372       .  A
C2530      H2533   1.072       .  S
C2531      C2532   1.386       .  A
C2531      H2534   1.083       .  S
C2532      C2620   1.487       .  S
N2535      C2539   1.361       .  A
N2535      C2536   1.350       .  A
C2536      C2537   1.381       .  A
C2536      C2576   1.469       .  S
C2537      C2538   1.357       .  A
C2537      H2540   1.076       .  S
C2538      C2539   1.378       .  A
C2538      H2541   1.083       .  S
C2539      C2606   1.463       .  S
N2542      C2546   1.363       .  A
N2542      C2543   1.356       .  A
N2542      C2551   1.432       .  S
C2544      C2545   1.370       .  A
C2544      H2547   1.075       .  S
C2545      H2548   1.083       .  S
C2546      C2621   1.490       .  S
C2549      N2550   1.347       .  A
C2549      N2554   1.365       .  A
N2550      C2551   1.362       .  A
C2551      N2552   1.354       .  A
N2552      C2553   1.367       .  A
C2553      N2554   1.353       .  A
O2555      C2571   1.268       .  A
O2555     Zn2561   1.942       .  S
C2556      O2572   1.265       .  A
C2556      O2569   1.292       .  A
O2557      C2570   1.272       .  A
O2557     Cd2564   2.062       .  S
O2558      C2576   1.288       .  A
O2558     Cd2567   2.138       .  S
O2559      C2573   1.274       .  A
O2559     Cd2563   2.056       .  S
O2560      C2571   1.281       .  A
O2560     Cd2563   2.098       .  S
Zn2561     O2572   1.917       .  S
Zn2561     O2574   2.010       .  S
Zn2561     O2566   1.859       .  S
O2562      C2573   1.276       .  A
O2562     Cd2567   2.085       .  S
Cd2563     O2565   2.073       .  S
Cd2563     O2566   1.983       .  S
Cd2564     O2568   2.067       .  S
Cd2564     O2577   1.978       .  S
Cd2564     O2566   1.967       .  S
O2565      C2575   1.272       .  A
O2566     Cd2567   2.014       .  S
Cd2567     O2569   2.191       .  S
O2568      C2575   1.277       .  A
C2570      O2574   1.271       .  A
C2576      O2577   1.263       .  A
N2578      C2582   1.367       .  A
N2578      C2579   1.374       .  A
N2578      C2603   1.444       .  S
C2579      C2580   1.380       .  A
C2579      C2699   1.482       .  S
C2580      C2581   1.359       .  A
C2580      H2583   1.083       .  S
C2581      C2582   1.384       .  A
C2581      H2584   1.083       .  S
C2582      C2623   1.481       .  S
N2585      C2589   1.360       .  A
N2585      C2586   1.364       .  A
N2585      C2601   1.449       .  S
C2586      C2587   1.384       .  A
C2586      C2698   1.474       .  S
C2587      C2588   1.359       .  A
C2588      C2589   1.374       .  A
C2588      H2591   1.077       .  S
C2589      C2625   1.471       .  S
N2592      C2593   1.364       .  A
N2592      C2599   1.444       .  S
C2593      C2626   1.486       .  S
C2594      C2595   1.361       .  A
C2594      H2597   1.083       .  S
C2595      C2596   1.387       .  A
C2595      H2598   1.083       .  S
C2596      C2696   1.491       .  S
C2599      N2600   1.372       .  A
C2599      N2604   1.370       .  A
N2600      C2601   1.356       .  A
C2601      N2602   1.350       .  A
N2602      C2603   1.357       .  A
C2603      N2604   1.367       .  A
O2605      C2621   1.286       .  A
C2606      O2622   1.283       .  A
C2606      O2619   1.272       .  A
O2607      C2620   1.280       .  A
O2607     Cd2614   2.090       .  S
O2608      C2626   1.273       .  A
O2608     Cd2617   2.070       .  S
O2609      C2623   1.276       .  A
O2610      C2621   1.283       .  A
O2610     Cd2613   2.105       .  S
Zn2611     O2624   2.087       .  S
Zn2611     O2616   1.938       .  S
O2612      C2623   1.270       .  A
Cd2614     O2618   2.046       .  S
Cd2614     O2627   2.112       .  S
Cd2614     O2616   1.993       .  S
O2615      C2625   1.281       .  A
Cd2617     O2619   2.024       .  S
O2618      C2625   1.271       .  A
C2620      O2624   1.286       .  A
N2628      C2629   1.358       .  A
C2629      C2630   1.377       .  A
C2629      C2694   1.472       .  S
C2630      H2633   1.082       .  S
C2631      C2632   1.387       .  A
C2631      H2634   1.083       .  S
C2632      C2670   1.463   1_545  S
N2635      C2639   1.356       .  A
N2635      C2636   1.360       .  A
N2635      C2651   1.437       .  S
C2636      C2637   1.380       .  A
C2636      C2656   1.456       .  S
C2637      C2638   1.367       .  A
C2637      H2640   1.083       .  S
C2638      C2639   1.383       .  A
C2638      H2641   1.079       .  S
C2639      C2679   1.486       .  S
N2642      C2646   1.359       .  A
N2642      C2643   1.365       .  A
N2642      C2653   1.427       .  S
C2643      C2644   1.390       .  A
C2643      C2671   1.492       .  S
C2644      C2645   1.365       .  A
C2644      H2647   1.083       .  S
C2645      C2646   1.379       .  A
C2645      H2648   1.082       .  S
C2649      N2650   1.369       .  A
N2650      C2651   1.357       .  A
C2651      N2652   1.342       .  A
C2653      N2654   1.363       .  A
O2655      C2671   1.269       .  A
O2655     Zn2661   1.947       .  S
C2656      O2672   1.269       .  A
C2656      O2669   1.280       .  A
O2657      C2670   1.272       .  A
O2657     Cd2664   2.049       .  S
O2658      C2676   1.272       .  A
O2658     Cd2667   2.076       .  S
O2659      C2673   1.279       .  A
O2659     Cd2663   2.099       .  S
O2660      C2671   1.291       .  A
O2660     Cd2663   2.183       .  S
Zn2661     O2672   1.953       .  S
Zn2661     O2674   2.007       .  S
Zn2661     O2666   1.867       .  S
O2662      C2673   1.273       .  A
O2662     Cd2667   2.049       .  S
Cd2663     O2665   2.124       .  S
Cd2663     O2666   2.011       .  S
Cd2664     O2668   1.985       .  S
Cd2664     O2677   2.068       .  S
Cd2664     O2666   1.968       .  S
O2665      C2675   1.284       .  A
O2666     Cd2667   1.979       .  S
Cd2667     O2669   2.091       .  S
O2668      C2675   1.263       .  A
C2670      O2674   1.271       .  A
C2676      O2677   1.277       .  A
O2678      C2694   1.264       .  A
O2678     Zn2684   1.968       .  S
C2679      O2695   1.265       .  A
C2679      O2692   1.288       .  A
O2681      C2699   1.287       .  A
O2681     Cd2690   2.130       .  S
O2682      C2696   1.279       .  A
O2682     Cd2686   2.115       .  S
O2683      C2694   1.278       .  A
O2683     Cd2686   2.119       .  S
Zn2684     O2695   1.943       .  S
Zn2684     O2697   1.958       .  S
Zn2684     O2689   1.863       .  S
O2685      C2696   1.281       .  A
O2685     Cd2690   2.079       .  S
Cd2686     O2688   2.051       .  S
Cd2686     O2689   1.995       .  S
Cd2687     O2700   2.086       .  S
Cd2687     O2689   1.981       .  S
O2689     Cd2690   1.967       .  S
Cd2690     O2692   2.158       .  S
O2691      C2698   1.275       .  A
C2693      O2697   1.264   1_455  A
C2699      O2700   1.281       .  A
