geometry optimzed in LAMMPS
_audit_creation_date              2020-12-01 
_audit_creation_method            'lammps2cif' 
_symmetry_space_group_name_H-M    'P1' 
_symmetry_Int_Tables_number       1 
_symmetry_cell_setting            triclinic 
loop_ 
_symmetry_equiv_pos_as_xyz 
  x,y,z 
_cell_length_a                    25.89648307 
_cell_length_b                    44.86443672856834 
_cell_length_c                    38.33618878401209 
_cell_angle_alpha                 90.01745340823175 
_cell_angle_beta                  89.90695473768179 
_cell_angle_gamma                 90.54212180231904 
loop_ 
_atom_site_label 
_atom_site_type_symbol 
_atom_site_fract_x 
_atom_site_fract_y 
_atom_site_fract_z 
_atom_site_charge 
C1          C  0.98724088  0.87812522  0.25259548     0.03600
C2          C  0.99341535  0.90141433  0.27651483    -0.12500
C3          C  0.00225801  0.93071436  0.26489724     0.01100
C4          C  0.00535954  0.93644577  0.22862763    -0.11100
C5          C  0.00027040  0.91297683  0.20441700     0.03600
C6          C  0.99136532  0.88394130  0.21688672    -0.10500
H7          H  0.99084577  0.89662563  0.30417009     0.09200
H8          H  0.01213313  0.95893529  0.21931452     0.06700
H9          H  0.98745642  0.86548616  0.19879434     0.06600
C10         C  0.92207783  0.61446537  0.31307437     0.80700
N11         N  0.92391603  0.64412760  0.30609731    -0.77600
C12         C  0.96989393  0.65840326  0.30170010     0.83100
N13         N  0.01435612  0.64274144  0.30424889    -0.77600
C14         C  0.01288587  0.61304258  0.31110928     0.83200
N15         N  0.96672982  0.59896847  0.31570768    -0.79300
O16         O  0.00686444  0.94299500  0.15159746    -0.57300
C17         C  0.00646520  0.96809347  0.04020848     0.75300
O18         O  0.06737422  0.88280111  0.06920563    -0.58500
C19         C  0.00396330  0.91755124  0.16610757     0.75300
C20         C  0.90885182  0.89404993  0.07915606     0.77700
Cd21       Cd  0.00758540  0.92073699  0.09078927     1.37500
O22         O  0.00614027  0.97315481  0.07285024    -0.57300
O23         O  0.91387298  0.92068055  0.08962285    -0.56100
C24         C  0.10774002  0.89685483  0.07855091     0.77600
O25         O  0.94993299  0.87990986  0.07264626    -0.58500
O26         O  0.00696990  0.94102128  0.03101389    -0.57000
O27         O  0.00383953  0.89530553  0.14588758    -0.57000
O28         O  0.10148278  0.92208982  0.09262490    -0.56100
C29         C  0.55126659  0.80934372  0.05111625     0.80700
N30         N  0.54719717  0.77922138  0.04959357    -0.77600
C31         C  0.50027134  0.76572504  0.04755012     0.83100
N32         N  0.45724927  0.78262254  0.04601249    -0.77600
C33         C  0.46091907  0.81277679  0.04720108     0.83200
N34         N  0.50794541  0.82621106  0.05014000    -0.79300
C35         C  0.47811805  0.54419574  0.01967160     0.03600
C36         C  0.47859808  0.52072267  0.04363466    -0.12500
C37         C  0.47530017  0.49101436  0.03208794     0.01100
C38         C  0.47214036  0.48508427  0.49582762    -0.11100
C39         C  0.47198234  0.50870490  0.47157686     0.03600
C40         C  0.47504865  0.53807019  0.48403557    -0.10500
H41         H  0.48163786  0.52569395  0.07122369     0.09200
H42         H  0.46979746  0.46230572  0.48656225     0.06700
H43         H  0.47495139  0.55663301  0.46593334     0.06600
O44         O  0.46847962  0.44843586  0.34043600    -0.57300
C45         C  0.46889978  0.50409010  0.43320815     0.75300
O46         O  0.52395883  0.53980504  0.33339576    -0.58500
C47         C  0.47136005  0.45355638  0.30785712     0.75300
C48         C  0.36468561  0.52460844  0.34435947     0.77700
Cd49       Cd  0.46590371  0.50106180  0.35769891     1.37500
O50         O  0.46872188  0.47866500  0.41857649    -0.57300
O51         O  0.37116444  0.49789396  0.35396627    -0.56100
C52         C  0.56506907  0.52753922  0.34383703     0.77600
O53         O  0.40530275  0.54023290  0.34043046    -0.58500
O54         O  0.46666413  0.52633099  0.41304198    -0.57000
O55         O  0.47066703  0.48058755  0.29859396    -0.57000
O56         O  0.55993358  0.50292139  0.35961243    -0.56100
C57         C  0.47605572  0.11158053  0.31482323     0.80700
N58         N  0.52310915  0.09836586  0.31497726    -0.77600
C59         C  0.56661739  0.11557956  0.31546431     0.83100
N60         N  0.56298388  0.14564908  0.31556216    -0.77600
C61         C  0.51617296  0.15875989  0.31613081     0.83200
N62         N  0.47276119  0.14170815  0.31551272    -0.79300
C63         C  0.48757715  0.37662273  0.27027492     0.03600
C64         C  0.48120493  0.39990800  0.29392175    -0.12500
C65         C  0.47618122  0.42927260  0.28204241     0.01100
C66         C  0.47679632  0.43505769  0.24572687    -0.11100
C67         C  0.48274062  0.41151926  0.22172829     0.03600
C68         C  0.48822759  0.38241014  0.23451907    -0.10500
H69         H  0.48044609  0.39499586  0.32160254     0.09200
H70         H  0.47254001  0.45763001  0.23623073     0.06700
H71         H  0.49263039  0.36385532  0.21666594     0.06600
O72         O  0.47455570  0.44098961  0.16874394    -0.57300
C73         C  0.47496105  0.46651093  0.05803814     0.75300
O74         O  0.52868799  0.37753324  0.08576688    -0.58500
C75         C  0.48179771  0.41596565  0.18334753     0.75300
C76         C  0.37228352  0.39448070  0.10218060     0.77700
Cd77       Cd  0.47486480  0.41853159  0.10807009     1.37500
O78         O  0.48129073  0.47130707  0.09044927    -0.57300
O79         O  0.38088488  0.42079077  0.11266439    -0.56100
C80         C  0.57086302  0.39193158  0.08856475     0.77600
O81         O  0.41116817  0.37951459  0.09271890    -0.58500
O82         O  0.46811152  0.43962227  0.04903879    -0.57000
O83         O  0.48746028  0.39396978  0.16316616    -0.57000
O84         O  0.56839091  0.41824880  0.10032722    -0.56100
C85         C  0.01620154  0.30671960  0.07754815     0.80700
N86         N  0.01691314  0.27695771  0.07171890    -0.77600
C87         C  0.97263961  0.26166621  0.06532604     0.83100
N88         N  0.92722611  0.27640220  0.06477355    -0.77600
C89         C  0.92577419  0.30625059  0.07051358     0.83200
N90         N  0.97056623  0.32148975  0.07670218    -0.79300
C91         C  0.00638928  0.04587780  0.00303439     0.03600
C92         C  0.00519923  0.02208579  0.02641556    -0.12500
C93         C  0.00656406  0.99261548  0.01435645     0.01100
C94         C  0.00876318  0.98714693  0.47798870    -0.11100
C95         C  0.00967688  0.01112768  0.45414313     0.03600
C96         C  0.00799541  0.04037917  0.46717055    -0.10500
H97         H  0.00366487  0.02672316  0.05414797     0.09200
H98         H  0.01007507  0.96447368  0.46835041     0.06700
H99         H  0.00814240  0.05920904  0.44945451     0.06600
O100        O  0.01282023  0.98139644  0.40104581    -0.57300
C101        C  0.00784866  0.95508294  0.29074180     0.75300
O102        O  0.96533336  0.04552232  0.31934101    -0.58500
C103        C  0.01269577  0.00679262  0.41572068     0.75300
C104        C  0.12117048  0.02253583  0.32532470     0.77700
Cd105      Cd  0.01732088  0.00322920  0.34018181     1.37500
O106        O  0.00732455  0.95029654  0.32343044    -0.57300
O107        O  0.11101591  0.99850174  0.34126229    -0.56100
C108        C  0.92259446  0.03219600  0.32454778     0.77600
O109        O  0.08263304  0.03808545  0.31660482    -0.58500
O110        O  0.01319843  0.98192629  0.28129584    -0.57000
O111        O  0.01531827  0.02908905  0.39558762    -0.57000
O112        O  0.92438479  0.00626548  0.33740565    -0.56100
C113        C  0.03802705  0.12728999  0.51973762    -0.22000
C114        C  0.99331641  0.13625333  0.03729861     0.10000
C115        C  0.95430565  0.11518261  0.04527127     0.10400
C116        C  0.96031402  0.08559427  0.03449759    -0.16900
C117        C  0.00445278  0.07673458  0.01609957    -0.27300
C118        C  0.04454358  0.09762796  0.50948964     0.18700
C119        C  0.98724598  0.16808466  0.04575681     0.12700
C120        C  0.90651378  0.12390321  0.06514518    -0.11700
H121        H  0.92994889  0.06939305  0.03975919     0.13000
C122        C  0.09491934  0.08938516  0.49239712    -0.22500
H123        H  0.06800232  0.14360437  0.51391610     0.08600
C124        C  0.01612912  0.18193022  0.07244130     0.04900
C125        C  0.00967874  0.21243351  0.07861169    -0.19700
C126        C  0.97475694  0.22927754  0.05890226    -0.12000
C127        C  0.94539432  0.21517971  0.03239056     0.13700
C128        C  0.95242438  0.18475009  0.02602960    -0.22500
C129        C  0.05330745  0.16452355  0.09453170    -0.05500
H130        H  0.03207460  0.22322675  0.09897480     0.15200
C131        C  0.90809269  0.23207157  0.00982543    -0.15700
H132        H  0.93086739  0.17381634  0.00535335     0.09500
H133        H  0.12742052  0.09567217  0.50986233     0.07400
H134        H  0.09921713  0.10165955  0.46740445     0.08600
H135        H  0.09819696  0.06521364  0.48705911     0.07600
H136        H  0.88434567  0.14058119  0.05011896     0.02500
H137        H  0.91764729  0.13358496  0.09074021     0.03000
H138        H  0.88069747  0.10443424  0.07002797     0.06500
H139        H  0.07162544  0.17870675  0.11488635     0.05500
H140        H  0.08449457  0.15529198  0.07798122    -0.00300
H141        H  0.03246888  0.14595363  0.10774179     0.01200
H142        H  0.89123848  0.21774255  0.48905214     0.04800
H143        H  0.92826969  0.25107049  0.99698509     0.06800
H144        H  0.87563971  0.24038073  0.02592888     0.07600
C145        C  0.70630434  0.38064979  0.05326334    -0.22000
C146        C  0.72045058  0.35482302  0.07122077     0.10000
C147        C  0.68423080  0.34019513  0.09295201     0.10400
C148        C  0.63457259  0.35203440  0.09662847    -0.16900
C149        C  0.62091483  0.37853085  0.07973360    -0.27300
C150        C  0.65688466  0.39275792  0.05722966     0.18700
C151        C  0.77423176  0.34428567  0.06858252     0.12700
C152        C  0.69853304  0.31256809  0.11293832    -0.11700
H153        H  0.60700788  0.34128874  0.11396649     0.13000
C154        C  0.64437119  0.42039947  0.03665834    -0.22500
H155        H  0.73426670  0.39165709  0.03643537     0.08600
C156        C  0.78939917  0.32373838  0.04283354     0.04900
C157        C  0.83981626  0.31259397  0.04341498    -0.19700
C158        C  0.87536517  0.32152519  0.06918728    -0.12000
C159        C  0.86028782  0.34276727  0.09444781     0.13700
C160        C  0.80988328  0.35397038  0.09366728    -0.22500
C161        C  0.75209936  0.31319798  0.01525355    -0.05500
H162        H  0.85133033  0.29645452  0.02392457     0.15200
C163        C  0.89584915  0.35248786  0.12342765    -0.15700
H164        H  0.79757278  0.36971978  0.11338388     0.09500
H165        H  0.65052322  0.41601249  0.00845289     0.07400
H166        H  0.67031502  0.43894962  0.04486092     0.08600
H167        H  0.60386168  0.42762901  0.03986386     0.07600
H168        H  0.73113642  0.31763834  0.13082439     0.02500
H169        H  0.71024617  0.29476861  0.09452153     0.03000
H170        H  0.66572995  0.30398702  0.12883502     0.06500
H171        H  0.77021580  0.29701373  0.49714015     0.05500
H172        H  0.73868554  0.33251113  0.99972695    -0.00300
H173        H  0.71827507  0.30213078  0.02770391     0.01200
H174        H  0.92999957  0.36430887  0.11245792     0.04800
H175        H  0.90837755  0.33273029  0.13852928     0.06800
H176        H  0.87658088  0.36799045  0.14179534     0.07600
C177        C  0.25524076  0.34296985  0.10916747    -0.22000
C178        C  0.21708642  0.36088429  0.09438561     0.10000
C179        C  0.22947234  0.39006637  0.08349827     0.06000
C180        C  0.28044541  0.40049082  0.08683191    -0.16900
C181        C  0.31921612  0.38231620  0.10070598    -0.27300
C182        C  0.30610696  0.35342499  0.11299814     0.18700
C183        C  0.16482365  0.34815581  0.08939610     0.12700
C184        C  0.18902758  0.40993570  0.06791959    -0.11700
H185        H  0.29032878  0.42276655  0.07792122     0.13000
C186        C  0.34366685  0.33344635  0.13157126    -0.22500
H187        H  0.24510661  0.32068196  0.11796540     0.08600
C188        C  0.15313347  0.33077053  0.05979596     0.04900
C189        C  0.10364490  0.31831952  0.05641369    -0.19700
C190        C  0.06573517  0.32260857  0.08209282    -0.12000
C191        C  0.07766415  0.33982049  0.11200829     0.13700
C192        C  0.12703079  0.35277265  0.11499701    -0.22500
C193        C  0.19305647  0.32519445  0.03196356    -0.05500
H194        H  0.09457554  0.30482405  0.03371397     0.15200
C195        C  0.04072579  0.34363053  0.14204605    -0.15700
H196        H  0.13663392  0.36585911  0.13792237     0.09500
H197        H  0.34955774  0.31286681  0.11603606     0.07400
H198        H  0.32756069  0.32715078  0.15744466     0.08600
H199        H  0.38167634  0.34408285  0.13644590     0.07600
H200        H  0.15752401  0.41346202  0.08711635     0.02500
H201        H  0.17273517  0.39939636  0.04410158     0.03000
H202        H  0.20524188  0.43207455  0.06059598     0.06500
H203        H  0.17737918  0.31123151  0.51045244     0.05500
H204        H  0.22654827  0.31344416  0.04340353    -0.00300
H205        H  0.20640762  0.34672629  0.02071385     0.01200
H206        H  0.05908700  0.33564069  0.16643445     0.04800
H207        H  0.00434344  0.33084938  0.13878483     0.06800
H208        H  0.03128398  0.36757561  0.14508421     0.07600
C209        C  0.69120161  0.07986413  0.34400990    -0.22000
C210        C  0.72062261  0.08270847  0.31346887     0.10000
C211        C  0.69872140  0.09540488  0.28337712     0.10400
C212        C  0.64751116  0.10514328  0.28457066    -0.16900
C213        C  0.61799373  0.10226087  0.31509053    -0.27300
C214        C  0.64009775  0.08974924  0.34533195     0.18700
C215        C  0.77386478  0.07138055  0.31344707     0.12700
C216        C  0.72963038  0.09902849  0.25031232    -0.11700
H217        H  0.63052530  0.11538023  0.26173079     0.13000
C218        C  0.61165740  0.08737873  0.37957568    -0.22500
H219        H  0.70846099  0.07012591  0.36706128     0.08600
C220        C  0.81539053  0.08827382  0.32703761     0.04900
C221        C  0.86460891  0.07551068  0.32852496    -0.19700
C222        C  0.87268221  0.04620214  0.31703926    -0.12000
C223        C  0.83139027  0.02996008  0.30171791     0.13700
C224        C  0.78234341  0.04269822  0.30053283    -0.22500
C225        C  0.80742819  0.11944975  0.34046940    -0.05500
H226        H  0.89633637  0.08795020  0.34009575     0.15200
C227        C  0.83756550  0.99946918  0.28571644    -0.15700
H228        H  0.75030034  0.03010042  0.28956968     0.09500
H229        H  0.63298521  0.10019012  0.39983761     0.07400
H230        H  0.60929886  0.06365054  0.38767723     0.08600
H231        H  0.57184805  0.09614974  0.37837235     0.07600
H232        H  0.74214336  0.07687921  0.24076723     0.02500
H233        H  0.76422207  0.11316215  0.25542600     0.03000
H234        H  0.70675651  0.10974631  0.22936788     0.06500
H235        H  0.84403266  0.12959457  0.35006070     0.05500
H236        H  0.77935870  0.11908376  0.36238575    -0.00300
H237        H  0.79227917  0.13371826  0.31923225     0.01200
H238        H  0.81453543  0.98289617  0.30078235     0.04800
H239        H  0.87817236  0.99203795  0.28453062     0.06800
H240        H  0.82321974  0.99983515  0.25843810     0.07600
C241        C  0.26828888  0.02522621  0.31732898    -0.22000
C242        C  0.27617758  0.05537137  0.30962034     0.10000
C243        C  0.23351497  0.07388164  0.30346511     0.10400
C244        C  0.18345833  0.06228996  0.30785990    -0.16900
C245        C  0.17505980  0.03247867  0.31797788    -0.27300
C246        C  0.21827293  0.01337591  0.32136276     0.18700
C247        C  0.32912248  0.06776880  0.31159769     0.12700
C248        C  0.24093962  0.10595128  0.29270915    -0.11700
H249        H  0.15084067  0.07688970  0.30426244     0.13000
C250        C  0.21264620  0.98055755  0.32913350    -0.22500
H251        H  0.30154694  0.01117919  0.32136852     0.08600
C252        C  0.34714031  0.08110349  0.34266958     0.04900
C253        C  0.39636962  0.09424693  0.34323675    -0.19700
C254        C  0.42819321  0.09385823  0.31367749    -0.12000
C255        C  0.41083553  0.07966646  0.28282675     0.13700
C256        C  0.36131359  0.06666604  0.28222843    -0.22500
C257        C  0.31421711  0.08161392  0.37513021    -0.05500
H258        H  0.40984126  0.10537149  0.36669422     0.15200
C259        C  0.44250151  0.07884697  0.24981842    -0.15700
H260        H  0.34725476  0.05623227  0.25850186     0.09500
H261        H  0.25044358  0.96906626  0.32853742     0.07400
H262        H  0.18745938  0.96981248  0.30926043     0.08600
H263        H  0.19609350  0.97724910  0.35557189     0.07600
H264        H  0.26292758  0.10695562  0.26783875     0.02500
H265        H  0.26266330  0.11836123  0.31306677     0.03000
H266        H  0.20346483  0.11727767  0.28870358     0.06500
H267        H  0.33442097  0.09273497  0.39717938     0.05500
H268        H  0.30455987  0.05844416  0.38314798    -0.00300
H269        H  0.27794629  0.09384471  0.37010264     0.01200
H270        H  0.44925565  0.05531472  0.24224064     0.04800
H271        H  0.48058328  0.09006661  0.25245069     0.06800
H272        H  0.42117174  0.09008627  0.22851889     0.07600
C273        C  0.47889949  0.23890217  0.33306507    -0.22000
C274        C  0.50456661  0.25306245  0.30541293     0.10000
C275        C  0.53528007  0.23642268  0.28225664     0.10400
C276        C  0.53934621  0.20567794  0.28716883    -0.16900
C277        C  0.51279274  0.19128898  0.31434225    -0.27300
C278        C  0.48276965  0.20807822  0.33797791     0.18700
C279        C  0.49728879  0.28518660  0.30001011     0.12700
C280        C  0.56246359  0.25097289  0.25180787    -0.11700
H281        H  0.56217277  0.19264353  0.26910721     0.13000
C282        C  0.45554699  0.19453515  0.36903724    -0.22500
H283        H  0.45563193  0.25198581  0.35081178     0.08600
C284        C  0.45322855  0.29584757  0.28269447     0.04900
C285        C  0.45066549  0.32610102  0.27424099    -0.19700
C286        C  0.49129145  0.34570376  0.28256613    -0.12000
C287        C  0.53500136  0.33510307  0.30064104     0.13700
C288        C  0.53712483  0.30487839  0.30949140    -0.22500
C289        C  0.40979569  0.27514883  0.27219982    -0.05500
H290        H  0.41732224  0.33445853  0.26040085     0.15200
C291        C  0.58094747  0.35452757  0.30954842    -0.15700
H292        H  0.57098837  0.29634594  0.32259404     0.09500
H293        H  0.41323351  0.19751756  0.36631747     0.07400
H294        H  0.46869284  0.20597189  0.39317975     0.08600
H295        H  0.46336721  0.17049011  0.37241032     0.07600
H296        H  0.59061118  0.26788119  0.26137142     0.02500
H297        H  0.53377243  0.26197189  0.23472214     0.03000
H298        H  0.58385621  0.23450825  0.23584064     0.06500
H299        H  0.37865081  0.28715997  0.25832412     0.05500
H300        H  0.39269947  0.26455396  0.29575047    -0.00300
H301        H  0.42467476  0.25756316  0.25455905     0.01200
H302        H  0.58618897  0.35502643  0.33828192     0.04800
H303        H  0.57723923  0.37776349  0.30023537     0.06800
H304        H  0.61618447  0.34515027  0.29736970     0.07600
C305        C  0.44314642  0.62080367  0.05378643    -0.22000
C306        C  0.48547454  0.63762486  0.04175442     0.10000
C307        C  0.52690665  0.62328074  0.52493791     0.10400
C308        C  0.52467523  0.59239340  0.51997676    -0.16900
C309        C  0.48169702  0.57561700  0.03096001    -0.27300
C310        C  0.44047809  0.58988499  0.04821096     0.18700
C311        C  0.48504043  0.67043080  0.04528893     0.12700
C312        C  0.57244299  0.64070256  0.51086286    -0.11700
H313        H  0.55578040  0.58133909  0.50630787     0.13000
C314        C  0.39267568  0.57286254  0.05906404    -0.22500
H315        H  0.41148928  0.63207135  0.06658169     0.08600
C316        C  0.45500422  0.68830894  0.02302087     0.04900
C317        C  0.46027801  0.71940082  0.02473199    -0.19700
C318        C  0.49562549  0.73291651  0.04766580    -0.12000
C319        C  0.52459880  0.71493440  0.07068853     0.13700
C320        C  0.51851445  0.68388236  0.06934888    -0.22500
C321        C  0.41865896  0.67458801  0.99675272    -0.05500
H322        H  0.43771062  0.73322300  0.00738750     0.15200
C323        C  0.56117412  0.72817674  0.09718998    -0.15700
H324        H  0.54105349  0.66987692  0.08650010     0.09500
H325        H  0.36344664  0.58771486  0.07097222     0.07400
H326        H  0.40273322  0.55563650  0.07858831     0.08600
H327        H  0.37492141  0.56195643  0.03594052     0.07600
H328        H  0.59307035  0.65208957  0.53250515     0.02500
H329        H  0.55892809  0.65758415  0.49185309     0.03000
H330        H  0.60045678  0.62606092  0.49735906     0.06500
H331        H  0.39912633  0.69181085  0.98083364     0.05500
H332        H  0.38839471  0.66132024  0.01037365    -0.00300
H333        H  0.44040135  0.65984994  0.47882367     0.01200
H334        H  0.57750567  0.71084216  0.11454424     0.04800
H335        H  0.54047279  0.74446787  0.11379914     0.06800
H336        H  0.59407457  0.73936637  0.08384249     0.07600
C337        C  0.22408382  0.84588210  0.07507607    -0.22000
C338        C  0.26160545  0.86550809  0.06181505     0.10000
C339        C  0.24836470  0.89502237  0.05353361     0.10400
C340        C  0.19769915  0.90451434  0.05940370    -0.16900
C341        C  0.15992398  0.88499891  0.07288997    -0.27300
C342        C  0.17335632  0.85526155  0.08107635     0.18700
C343        C  0.31478037  0.85466773  0.05726089     0.12700
C344        C  0.28768004  0.91635257  0.03839973    -0.11700
H345        H  0.18734674  0.92725068  0.05311746     0.13000
C346        C  0.13653326  0.83315272  0.09763298    -0.22500
H347        H  0.23482946  0.82323078  0.08152042     0.08600
C348        C  0.35109875  0.85634637  0.08459653     0.04900
C349        C  0.40038089  0.84436858  0.07960008    -0.19700
C350        C  0.41335039  0.83023802  0.04821021    -0.12000
C351        C  0.37743820  0.82940026  0.02049393     0.13700
C352        C  0.32845659  0.84169697  0.02539167    -0.22500
C353        C  0.33720463  0.86987017  0.11930120    -0.05500
H354        H  0.42794297  0.84461640  0.10086544     0.15200
C355        C  0.38953999  0.81572706  0.98554123    -0.15700
H356        H  0.30043252  0.84074525  0.00442339     0.09500
H357        H  0.15361100  0.82463634  0.12220030     0.07400
H358        H  0.13012059  0.81410411  0.07960356     0.08600
H359        H  0.09866400  0.84267167  0.10456387     0.07600
H360        H  0.30248116  0.90741677  0.01332816     0.02500
H361        H  0.32038495  0.91927062  0.05679604     0.03000
H362        H  0.27086183  0.93860930  0.03331033     0.06500
H363        H  0.37008084  0.86926515  0.13785289     0.05500
H364        H  0.30437883  0.85731679  0.13106220    -0.00300
H365        H  0.32595514  0.89347492  0.11571566     0.01200
H366        H  0.36290081  0.79664444  0.48063953     0.04800
H367        H  0.42977018  0.80765642  0.98362364     0.06800
H368        H  0.38417281  0.83263449  0.46474824     0.07600
C369        C  0.66703568  0.85353855  0.08395718    -0.22000
C370        C  0.70414671  0.84591685  0.05898782     0.10000
C371        C  0.69074907  0.82684794  0.03117859     0.10400
C372        C  0.64013039  0.81563663  0.02907670    -0.16900
C373        C  0.60279776  0.82318948  0.05410460    -0.27300
C374        C  0.61651988  0.84221499  0.08212432     0.18700
C375        C  0.75701100  0.85797665  0.06293443     0.12700
C376        C  0.72980429  0.81848367  0.00379971    -0.11700
H377        H  0.62957379  0.80085229  0.00781282     0.13000
C378        C  0.58013377  0.84998288  0.11143200    -0.22500
H379        H  0.67792996  0.86800922  0.10545059     0.08600
C380        C  0.76959597  0.88717171  0.05221277     0.04900
C381        C  0.81963649  0.89818874  0.05790731    -0.19700
C382        C  0.85723461  0.88070608  0.07420453    -0.12000
C383        C  0.84412296  0.85159015  0.08574929     0.13700
C384        C  0.79426730  0.84044195  0.07933510    -0.22500
C385        C  0.73023702  0.90658648  0.03467166    -0.05500
H386        H  0.82959293  0.92057425  0.04940046     0.15200
C387        C  0.88012437  0.83227219  0.10659392    -0.15700
H388        H  0.78380406  0.81821581  0.08817526     0.09500
H389        H  0.57389861  0.87443155  0.11176195     0.07400
H390        H  0.59746937  0.84326315  0.13668149     0.08600
H391        H  0.54210086  0.83868078  0.10958100     0.07600
H392        H  0.76251484  0.80666429  0.01613336     0.02500
H393        H  0.74461323  0.83890034  0.99065901     0.03000
H394        H  0.71276608  0.80359381  0.48363484     0.06500
H395        H  0.74665208  0.92874479  0.02762609     0.05500
H396        H  0.69699177  0.91018198  0.05244377    -0.00300
H397        H  0.71635788  0.89563137  0.01042112     0.01200
H398        H  0.86106000  0.82574130  0.13146309     0.04800
H399        H  0.91681263  0.84352703  0.11366642     0.06800
H400        H  0.88902834  0.81178777  0.09157913     0.07600
C401        C  0.14170998  0.57765492  0.28996673    -0.22000
C402        C  0.15739833  0.56842695  0.32318446     0.10000
C403        C  0.12423797  0.57243995  0.35202266     0.10400
C404        C  0.07629092  0.58615774  0.34706127    -0.16900
C405        C  0.06134974  0.59634356  0.31403932    -0.27300
C406        C  0.09400305  0.59159769  0.28498845     0.18700
C407        C  0.21026803  0.55674319  0.32766841     0.12700
C408        C  0.13996854  0.56273982  0.38805400    -0.11700
H409        H  0.05101845  0.58979470  0.36920882     0.13000
C410        C  0.07963329  0.60072947  0.24845591    -0.22500
H411        H  0.16729255  0.57443329  0.26788319     0.08600
C412        C  0.22158304  0.52629878  0.32343446     0.04900
C413        C  0.27234443  0.51653314  0.32883603    -0.19700
C414        C  0.31218716  0.53658668  0.33808506    -0.12000
C415        C  0.30048274  0.56722088  0.34212355     0.13700
C416        C  0.24966915  0.57681822  0.33680099    -0.22500
C417        C  0.18004730  0.50419636  0.31343714    -0.05500
H418        H  0.28096210  0.49309436  0.32567660     0.15200
C419        C  0.34057171  0.58988567  0.35317867    -0.15700
H420        H  0.24034037  0.60015396  0.34008592     0.09500
H421        H  0.07972927  0.58083036  0.23121916     0.07400
H422        H  0.10834014  0.61718209  0.23848312     0.08600
H423        H  0.04081239  0.61080207  0.24680133     0.07600
H424        H  0.17573608  0.57474876  0.39600548     0.02500
H425        H  0.14720049  0.53839302  0.38819840     0.03000
H426        H  0.10953495  0.56750099  0.40767231     0.06500
H427        H  0.19537108  0.48122581  0.31126974     0.05500
H428        H  0.16334827  0.51043686  0.28783607    -0.00300
H429        H  0.14902341  0.50409059  0.33345259     0.01200
H430        H  0.32368482  0.61234606  0.35679035     0.04800
H431        H  0.37104293  0.59189278  0.33291575     0.06800
H432        H  0.35796230  0.58311576  0.37838892     0.07600
C433        C  0.80910144  0.56860207  0.34803606    -0.22000
C434        C  0.77147960  0.57439256  0.32269743     0.10000
C435        C  0.78405445  0.59248381  0.29376249     0.10400
C436        C  0.83376249  0.60494312  0.29120640    -0.16900
C437        C  0.87144449  0.59933298  0.31658757    -0.27300
C438        C  0.85918585  0.58068138  0.34521835     0.18700
C439        C  0.71863144  0.56212371  0.32752274     0.12700
C440        C  0.74523321  0.59836464  0.26540125    -0.11700
H441        H  0.84337860  0.61911182  0.26918495     0.13000
C442        C  0.89793335  0.57444765  0.37352111    -0.22500
H443        H  0.79894409  0.55485783  0.37030934     0.08600
C444        C  0.70745196  0.53157192  0.32286977     0.04900
C445        C  0.65678393  0.52117057  0.32816047    -0.19700
C446        C  0.61691865  0.54060176  0.33777050    -0.12000
C447        C  0.62835199  0.57130830  0.34250868     0.13700
C448        C  0.67906378  0.58157791  0.33713380    -0.22500
C449        C  0.74872037  0.51007684  0.31178670    -0.05500
H450        H  0.64812595  0.49766391  0.32455748     0.15200
C451        C  0.58941219  0.59383879  0.35475030    -0.15700
H452        H  0.68810974  0.60500530  0.34107678     0.09500
H453        H  0.93111608  0.56204732  0.36259705     0.07400
H454        H  0.88089911  0.56069865  0.39478469     0.08600
H455        H  0.91187265  0.59574891  0.38506598     0.07600
H456        H  0.71161745  0.61042937  0.27622387     0.02500
H457        H  0.73185737  0.57689762  0.25398046     0.03000
H458        H  0.76200911  0.61217187  0.24409956     0.06500
H459        H  0.73301349  0.48713965  0.30834994     0.05500
H460        H  0.77953041  0.50921226  0.33182593    -0.00300
H461        H  0.76574763  0.51739541  0.28656944     0.01200
H462        H  0.60411043  0.60506367  0.37862142     0.04800
H463        H  0.55137691  0.58413939  0.36156608     0.06800
H464        H  0.58388270  0.61090315  0.33414512     0.07600
C465        C  0.00144106  0.73529771  0.26511420    -0.22000
C466        C  0.97067965  0.75334877  0.28635951     0.10000
C467        C  0.93912841  0.74018460  0.31221779     0.10400
C468        C  0.93935407  0.70909465  0.31636328    -0.16900
C469        C  0.97111421  0.69097753  0.29566931    -0.27300
C470        C  0.00244426  0.70427125  0.26958911     0.18700
C471        C  0.97280591  0.78601458  0.28099943     0.12700
C472        C  0.90614386  0.75896826  0.33582099    -0.11700
H473        H  0.91532605  0.69890120  0.33633285     0.13000
C474        C  0.03580829  0.68591863  0.24572401    -0.22500
H475        H  0.02512089  0.74566508  0.24507451     0.08600
C476        C  0.01585522  0.80310231  0.29194598     0.04900
C477        C  0.01835703  0.83352321  0.28367011    -0.19700
C478        C  0.97888045  0.84715283  0.26462116    -0.12000
C479        C  0.93463066  0.83028755  0.25501669     0.13700
C480        C  0.93238576  0.79982845  0.26313701    -0.22500
C481        C  0.05928773  0.78917110  0.31210626    -0.05500
H482        H  0.05211458  0.84653520  0.29103251     0.15200
C483        C  0.88908271  0.84367150  0.23645472    -0.15700
H484        H  0.89917920  0.78664577  0.25505398     0.09500
H485        H  0.06649086  0.67477299  0.26092423     0.07400
H486        H  0.05513281  0.69989027  0.22556017     0.08600
H487        H  0.01177127  0.66890448  0.23215106     0.07600
H488        H  0.87755403  0.77142632  0.32014084     0.02500
H489        H  0.93091828  0.77503946  0.35033189     0.03000
H490        H  0.88466253  0.74514638  0.35512384     0.06500
H491        H  0.08944444  0.80584645  0.31922804     0.05500
H492        H  0.07786285  0.77159333  0.29619895    -0.00300
H493        H  0.04394419  0.77913480  0.33652619     0.01200
H494        H  0.88444383  0.83303724  0.21047395     0.04800
H495        H  0.89283477  0.86808692  0.23275334     0.06800
H496        H  0.85349910  0.83959875  0.25200725     0.07600
C497        C  0.98723519  0.87812472  0.75259521     0.03600
C498        C  0.99340726  0.90141392  0.77651472    -0.12500
C499        C  0.00225089  0.93071396  0.76489734     0.01100
C500        C  0.00535538  0.93644525  0.72862778    -0.11100
C501        C  0.00026877  0.91297621  0.70441701     0.03600
C502        C  0.99136263  0.88394072  0.71688655    -0.10500
H503        H  0.99083562  0.89662527  0.80416991     0.09200
H504        H  0.01212991  0.95893474  0.71931482     0.06700
H505        H  0.98745558  0.86548552  0.69879411     0.06600
C506        C  0.92208552  0.61446198  0.81306443     0.80700
N507        N  0.92392114  0.64412402  0.80608584    -0.77600
C508        C  0.96989788  0.65840153  0.80169128     0.83100
N509        N  0.01436189  0.64274208  0.80424520    -0.77600
C510        C  0.01289415  0.61304370  0.81110805     0.83200
N511        N  0.96673934  0.59896744  0.81570247    -0.79300
O512        O  0.00686566  0.94299414  0.65159730    -0.57300
C513        C  0.00647200  0.96809360  0.54020841     0.75300
O514        O  0.06737848  0.88280155  0.56919984    -0.58500
C515        C  0.00396531  0.91755044  0.66610761     0.75300
C516        C  0.90885753  0.89404717  0.57915676     0.77700
Cd517      Cd  0.00759057  0.92073588  0.59078896     1.37500
O518        O  0.00614618  0.97315464  0.57285022    -0.57300
O519        O  0.91387837  0.92067904  0.58961920    -0.56100
C520        C  0.10774455  0.89685329  0.57854853     0.77600
O521        O  0.94993898  0.87990622  0.57265054    -0.58500
O522        O  0.00697662  0.94102142  0.53101374    -0.57000
O523        O  0.00384521  0.89530463  0.64588781    -0.57000
O524        O  0.10148794  0.92208628  0.59262760    -0.56100
C525        C  0.55127063  0.80934277  0.55111664     0.80700
N526        N  0.54719979  0.77922034  0.54959612    -0.77600
C527        C  0.50027333  0.76572468  0.54755213     0.83100
N528        N  0.45725241  0.78262291  0.54601176    -0.77600
C529        C  0.46092362  0.81277715  0.54719802     0.83200
N530        N  0.50795039  0.82621078  0.55013753    -0.79300
C531        C  0.47811704  0.54419553  0.51966975     0.03600
C532        C  0.47859690  0.52072237  0.54363281    -0.12500
C533        C  0.47529872  0.49101401  0.53208614     0.01100
C534        C  0.47214320  0.48508450  0.99582942    -0.11100
C535        C  0.47198479  0.50870508  0.97157870     0.03600
C536        C  0.47504963  0.53807036  0.98403743    -0.10500
H537        H  0.48163670  0.52569363  0.57122181     0.09200
H538        H  0.46980105  0.46230594  0.98656406     0.06700
H539        H  0.47495227  0.55663315  0.96593515     0.06600
O540        O  0.46847984  0.44843703  0.84043616    -0.57300
C541        C  0.46890355  0.50409030  0.93321000     0.75300
O542        O  0.52396807  0.53980591  0.83339947    -0.58500
C543        C  0.47136345  0.45355777  0.80785744     0.75300
C544        C  0.36469601  0.52461201  0.84436120     0.77700
Cd545      Cd  0.46591167  0.50106278  0.85770069     1.37500
O546        O  0.46873644  0.47866542  0.91857789    -0.57300
O547        O  0.37117305  0.49789759  0.85396899    -0.56100
C548        C  0.56507775  0.52753890  0.84383972     0.77600
O549        O  0.40531444  0.54023512  0.84043112    -0.58500
O550        O  0.46665896  0.52633110  0.91304425    -0.57000
O551        O  0.47067513  0.48058913  0.79859478    -0.57000
O552        O  0.55994155  0.50292107  0.85961496    -0.56100
C553        C  0.47605072  0.11158230  0.81481270     0.80700
N554        N  0.52310297  0.09836610  0.81496548    -0.77600
C555        C  0.56661296  0.11557832  0.81545284     0.83100
N556        N  0.56298256  0.14564792  0.81555256    -0.77600
C557        C  0.51617319  0.15876033  0.81612276     0.83200
N558        N  0.47275942  0.14171014  0.81550468    -0.79300
C559        C  0.48758071  0.37662397  0.77027593     0.03600
C560        C  0.48120845  0.39990948  0.79392234    -0.12500
C561        C  0.47618362  0.42927390  0.78204260     0.01100
C562        C  0.47679788  0.43505853  0.74572685    -0.11100
C563        C  0.48274195  0.41151975  0.72172851     0.03600
C564        C  0.48822959  0.38241082  0.73451991    -0.10500
H565        H  0.48045096  0.39499769  0.82160323     0.09200
H566        H  0.47254113  0.45763074  0.73623041     0.06700
H567        H  0.49263244  0.36385574  0.71666714     0.06600
O568        O  0.47456139  0.44098958  0.66874309    -0.57300
C569        C  0.47496129  0.46651042  0.55803642     0.75300
O570        O  0.52869113  0.37753225  0.58576368    -0.58500
C571        C  0.48179926  0.41596551  0.68334742     0.75300
C572        C  0.37228727  0.39447961  0.60218109     0.77700
Cd573      Cd  0.47486854  0.41853064  0.60806907     1.37500
O574        O  0.48129266  0.47130647  0.59044740    -0.57300
O575        O  0.38088925  0.42078971  0.61266452    -0.56100
C576        C  0.57086678  0.39192971  0.58856321     0.77600
O577        O  0.41117143  0.37951337  0.59271871    -0.58500
O578        O  0.46811198  0.43962167  0.54903733    -0.57000
O579        O  0.48745851  0.39396901  0.66316650    -0.57000
O580        O  0.56839538  0.41824620  0.60032803    -0.56100
C581        C  0.01620486  0.30671882  0.57755774     0.80700
N582        N  0.01691713  0.27695708  0.57172736    -0.77600
C583        C  0.97264420  0.26166575  0.56533216     0.83100
N584        N  0.92723075  0.27640174  0.56477840    -0.77600
C585        C  0.92577831  0.30624994  0.57051953     0.83200
N586        N  0.97056969  0.32148897  0.57671043    -0.79300
C587        C  0.00639486  0.04587816  0.50303347     0.03600
C588        C  0.00520573  0.02208626  0.52641505    -0.12500
C589        C  0.00657152  0.99261576  0.51435630     0.01100
C590        C  0.00875489  0.98714685  0.97798884    -0.11100
C591        C  0.00967002  0.01112778  0.95414355     0.03600
C592        C  0.00799031  0.04037925  0.96717134    -0.10500
H593        H  0.00367112  0.02672380  0.55414742     0.09200
H594        H  0.01006579  0.96447362  0.96835034     0.06700
H595        H  0.00813857  0.05920928  0.94945558     0.06600
O596        O  0.01280677  0.98139664  0.90104602    -0.57300
C597        C  0.00784104  0.95508254  0.79074204     0.75300
O598        O  0.96533034  0.04552323  0.81934014    -0.58500
C599        C  0.01268923  0.00679279  0.91572109     0.75300
C600        C  0.12116656  0.02253321  0.82532503     0.77700
Cd601      Cd  0.01731506  0.00322898  0.84018217     1.37500
O602        O  0.00731763  0.95029611  0.82343069    -0.57300
O603        O  0.11101069  0.99849990  0.84126393    -0.56100
C604        C  0.92259069  0.03219775  0.82454701     0.77600
O605        O  0.08262971  0.03808284  0.81660399    -0.58500
O606        O  0.01319036  0.98192593  0.78129618    -0.57000
O607        O  0.01531895  0.02908914  0.89558825    -0.57000
O608        O  0.92437946  0.00626769  0.83740626    -0.56100
C609        C  0.03802501  0.12728840  0.01974226    -0.22000
C610        C  0.99332009  0.13625422  0.53729624     0.10000
C611        C  0.95431081  0.11518307  0.54527045     0.10400
C612        C  0.96031986  0.08559461  0.53449727    -0.16900
C613        C  0.00445759  0.07673530  0.51609779    -0.27300
C614        C  0.04454109  0.09762631  0.00949435     0.18700
C615        C  0.98725035  0.16808525  0.54575608     0.12700
C616        C  0.90651975  0.12390346  0.56514534    -0.11700
H617        H  0.92995598  0.06939297  0.53976045     0.13000
C618        C  0.09491862  0.08938231  0.99240506    -0.22500
H619        H  0.06800163  0.14360228  0.01392211     0.08600
C620        C  0.01613229  0.18192914  0.57244231     0.04900
C621        C  0.00968192  0.21243209  0.57861507    -0.19700
C622        C  0.97476213  0.22927750  0.55890565    -0.12000
C623        C  0.94540222  0.21518155  0.53239120     0.13700
C624        C  0.95243110  0.18475207  0.52602868    -0.22500
C625        C  0.05330984  0.16452103  0.59453172    -0.05500
H626        H  0.03207636  0.22322398  0.59897983     0.15200
C627        C  0.90810532  0.23207541  0.50982452    -0.15700
H628        H  0.93087537  0.17381959  0.50535093     0.09500
H629        H  0.12741768  0.09566780  0.00987279     0.07400
H630        H  0.09922148  0.10165716  0.96741310     0.08600
H631        H  0.09819454  0.06521078  0.98706642     0.07600
H632        H  0.88435101  0.14058144  0.55011949     0.02500
H633        H  0.91765426  0.13358525  0.59074014     0.03000
H634        H  0.88070383  0.10443440  0.57002859     0.06500
H635        H  0.07162779  0.17870300  0.61488754     0.05500
H636        H  0.08449696  0.15529014  0.57798066    -0.00300
H637        H  0.03247070  0.14595050  0.60774024     0.01200
H638        H  0.89122312  0.21773722  0.98905545     0.04800
H639        H  0.92828563  0.25107465  0.49698713     0.06800
H640        H  0.87565013  0.24038429  0.52592608     0.07600
C641        C  0.70631020  0.38065000  0.55326401    -0.22000
C642        C  0.72045421  0.35482097  0.57121777     0.10000
C643        C  0.68423205  0.34019069  0.59294504     0.10400
C644        C  0.63457378  0.35202999  0.59662161    -0.16900
C645        C  0.62091841  0.37852891  0.57973101    -0.27300
C646        C  0.65689058  0.39275820  0.55723060     0.18700
C647        C  0.77423616  0.34428451  0.56858146     0.12700
C648        C  0.69853206  0.31256123  0.61292755    -0.11700
H649        H  0.60700740  0.34128252  0.61395683     0.13000
C650        C  0.64438001  0.42040247  0.53666348    -0.22500
H651        H  0.73427436  0.39165917  0.53643915     0.08600
C652        C  0.78940784  0.32373930  0.54283135     0.04900
C653        C  0.83982498  0.31259509  0.54341519    -0.19700
C654        C  0.87536977  0.32152466  0.56919079    -0.12000
C655        C  0.86028873  0.34276520  0.59445200     0.13700
C656        C  0.80988403  0.35396792  0.59366930    -0.22500
C657        C  0.75211263  0.31320097  0.51524748    -0.05500
H658        H  0.85134230  0.29645705  0.52392406     0.15200
C659        C  0.89584637  0.35248453  0.62343451    -0.15700
H660        H  0.79757044  0.36971595  0.61338653     0.09500
H661        H  0.65053474  0.41601899  0.50845756     0.07400
H662        H  0.67032358  0.43895132  0.54487043     0.08600
H663        H  0.60387039  0.42763201  0.53986833     0.07600
H664        H  0.73113391  0.31762923  0.63081574     0.02500
H665        H  0.71024661  0.29476382  0.59450843     0.03000
H666        H  0.66572742  0.30397849  0.62882156     0.06500
H667        H  0.77019932  0.29700913  0.99714675     0.05500
H668        H  0.73870099  0.33251534  0.49972208    -0.00300
H669        H  0.71828654  0.30213255  0.52769411     0.01200
H670        H  0.92999782  0.36430639  0.61246746     0.04800
H671        H  0.90837379  0.33272630  0.63853535     0.06800
H672        H  0.87657546  0.36798597  0.64180226     0.07600
C673        C  0.25524335  0.34296998  0.60917186    -0.22000
C674        C  0.21708839  0.36088509  0.59439191     0.10000
C675        C  0.22947444  0.39006706  0.58350429     0.06000
C676        C  0.28044831  0.40049068  0.58683562    -0.16900
C677        C  0.31921961  0.38231540  0.60070779    -0.27300
C678        C  0.30611038  0.35342430  0.61300030     0.18700
C679        C  0.16482540  0.34815683  0.58940332     0.12700
C680        C  0.18902894  0.40993718  0.56792788    -0.11700
H681        H  0.29033172  0.42276635  0.57792479     0.13000
C682        C  0.34367102  0.33344486  0.63157153    -0.22500
H683        H  0.24510913  0.32068213  0.61796982     0.08600
C684        C  0.15313393  0.33077254  0.55980263     0.04900
C685        C  0.10364593  0.31832074  0.55642148    -0.19700
C686        C  0.06573797  0.32260813  0.58210209    -0.12000
C687        C  0.07766785  0.33981932  0.61201793     0.13700
C688        C  0.12703417  0.35277210  0.61500578    -0.22500
C689        C  0.19305506  0.32519822  0.53196847    -0.05500
H690        H  0.09457557  0.30482596  0.53372131     0.15200
C691        C  0.04073063  0.34362807  0.64205660    -0.15700
H692        H  0.13663833  0.36585786  0.63793154     0.09500
H693        H  0.34955890  0.31286519  0.61603602     0.07400
H694        H  0.32756722  0.32714960  0.65744570     0.08600
H695        H  0.38168170  0.34408051  0.63644432     0.07600
H696        H  0.15752758  0.41346373  0.58712624     0.02500
H697        H  0.17273351  0.39939839  0.54411048     0.03000
H698        H  0.20524346  0.43207589  0.56060388     0.06500
H699        H  0.17738151  0.31122724  0.01044767     0.05500
H700        H  0.22654844  0.31344813  0.54340660    -0.00300
H701        H  0.20640408  0.34673071  0.52071935     0.01200
H702        H  0.05909264  0.33563693  0.66644415     0.04800
H703        H  0.00434769  0.33084747  0.63879498     0.06800
H704        H  0.03128936  0.36757305  0.64509655     0.07600
C705        C  0.69119629  0.07986374  0.84400093    -0.22000
C706        C  0.72061855  0.08270820  0.81346047     0.10000
C707        C  0.69871761  0.09540314  0.78336778     0.10400
C708        C  0.64750660  0.10514036  0.78455997    -0.16900
C709        C  0.61798815  0.10225821  0.81507941    -0.27300
C710        C  0.64009167  0.08974765  0.84532163     0.18700
C711        C  0.77386136  0.07138128  0.81344010     0.12700
C712        C  0.72962780  0.09902672  0.75030350    -0.11700
H713        H  0.63052122  0.11537670  0.76171954     0.13000
C714        C  0.61164997  0.08737717  0.87956485    -0.22500
H715        H  0.70845532  0.07012640  0.86705297     0.08600
C716        C  0.81538557  0.08827512  0.82703192     0.04900
C717        C  0.86460423  0.07551243  0.82852123    -0.19700
C718        C  0.87267919  0.04620386  0.81703627    -0.12000
C719        C  0.83138901  0.02996138  0.80171340     0.13700
C720        C  0.78234198  0.04269904  0.80052636    -0.22500
C721        C  0.80742117  0.11945107  0.84046303    -0.05500
H722        H  0.89633056  0.08795233  0.84009311     0.15200
C723        C  0.83756639  0.99947040  0.78571253    -0.15700
H724        H  0.75030006  0.03010076  0.78956218     0.09500
H725        H  0.63297568  0.10018973  0.89982678     0.07400
H726        H  0.60929327  0.06364912  0.88766721     0.08600
H727        H  0.57183980  0.09614683  0.87836038     0.07600
H728        H  0.74214293  0.07687755  0.74075940     0.02500
H729        H  0.76421817  0.11316140  0.75541743     0.03000
H730        H  0.70675404  0.10974343  0.72935821     0.06500
H731        H  0.84402462  0.12959640  0.85005542     0.05500
H732        H  0.77935009  0.11908497  0.86237844    -0.00300
H733        H  0.79227322  0.13371919  0.81922517     0.01200
H734        H  0.81453532  0.98289734  0.80077769     0.04800
H735        H  0.87817351  0.99203946  0.78452849     0.06800
H736        H  0.82322307  0.99983605  0.75843359     0.07600
C737        C  0.26828637  0.02522481  0.81733481    -0.22000
C738        C  0.27617384  0.05536828  0.80961632     0.10000
C739        C  0.23351037  0.07387594  0.80345294     0.10400
C740        C  0.18345411  0.06228429  0.80784995    -0.16900
C741        C  0.17505643  0.03247528  0.81797756    -0.27300
C742        C  0.21827068  0.01337433  0.82137046     0.18700
C743        C  0.32911772  0.06776781  0.81159241     0.12700
C744        C  0.24093356  0.10594287  0.79268545    -0.11700
H745        H  0.15083598  0.07688246  0.80424606     0.13000
C746        C  0.21264558  0.98055778  0.82915213    -0.22500
H747        H  0.30154498  0.01117958  0.82138055     0.08600
C748        C  0.34712876  0.08111347  0.84265967     0.04900
C749        C  0.39635648  0.09425904  0.84322489    -0.19700
C750        C  0.42818616  0.09386119  0.81366878    -0.12000
C751        C  0.41083554  0.07965820  0.78282313     0.13700
C752        C  0.36131461  0.06665612  0.78222650    -0.22500
C753        C  0.31420071  0.08163241  0.87511784    -0.05500
H754        H  0.40982298  0.10539135  0.86667867     0.15200
C755        C  0.44250745  0.07882827  0.74981782    -0.15700
H756        H  0.34726116  0.05621389  0.75850357     0.09500
H757        H  0.25044396  0.96906735  0.82856233     0.07400
H758        H  0.18746228  0.96980706  0.80928117     0.08600
H759        H  0.19608958  0.97725555  0.85559064     0.07600
H760        H  0.26292329  0.10694103  0.76781546     0.02500
H761        H  0.26265483  0.11835892  0.81303918     0.03000
H762        H  0.20345826  0.11726728  0.78867434     0.06500
H763        H  0.33439986  0.09276113  0.89716370     0.05500
H764        H  0.30454553  0.05846466  0.88314472    -0.00300
H765        H  0.27792887  0.09385993  0.87008278     0.01200
H766        H  0.44926700  0.05529361  0.74225262     0.04800
H767        H  0.48058659  0.09005133  0.75244718     0.06800
H768        H  0.42117937  0.09005833  0.72851078     0.07600
C769        C  0.47891763  0.23890356  0.83306920    -0.22000
C770        C  0.50457737  0.25306415  0.80541415     0.10000
C771        C  0.53528128  0.23642422  0.78225219     0.10400
C772        C  0.53934453  0.20567895  0.78716131    -0.16900
C773        C  0.51279700  0.19128968  0.81433711    -0.27300
C774        C  0.48278463  0.20807905  0.83797881     0.18700
C775        C  0.49729815  0.28518839  0.80001263     0.12700
C776        C  0.56245704  0.25097493  0.75180063    -0.11700
H777        H  0.56216362  0.19264441  0.76909544     0.13000
C778        C  0.45556991  0.19453520  0.86904079    -0.22500
H779        H  0.45565721  0.25198727  0.85082017     0.08600
C780        C  0.45323515  0.29584895  0.78269984     0.04900
C781        C  0.45067034  0.32610223  0.77424588    -0.19700
C782        C  0.49129713  0.34570530  0.78256793    -0.12000
C783        C  0.53500965  0.33510519  0.80064052     0.13700
C784        C  0.53713526  0.30488052  0.80949100    -0.22500
C785        C  0.40980099  0.27514983  0.77220862    -0.05500
H786        H  0.41732505  0.33445931  0.76040767     0.15200
C787        C  0.58095600  0.35453038  0.80954533    -0.15700
H788        H  0.57100096  0.29634840  0.82259136     0.09500
H789        H  0.41325615  0.19752078  0.86632806     0.07400
H790        H  0.46872651  0.20596895  0.89318259     0.08600
H791        H  0.46338607  0.17048923  0.87240946     0.07600
H792        H  0.59060907  0.26788190  0.76136149     0.02500
H793        H  0.53376187  0.26197568  0.73471955     0.03000
H794        H  0.58384321  0.23451030  0.73582938     0.06500
H795        H  0.37865354  0.28716065  0.75833520     0.05500
H796        H  0.39270898  0.26455498  0.79576066    -0.00300
H797        H  0.42467750  0.25756415  0.75456685     0.01200
H798        H  0.58620103  0.35502929  0.83827853     0.04800
H799        H  0.57724539  0.37776626  0.80023261     0.06800
H800        H  0.61619194  0.34515365  0.79736460     0.07600
C801        C  0.44314264  0.62080277  0.55378595    -0.22000
C802        C  0.48547182  0.63762444  0.54175648     0.10000
C803        C  0.52690837  0.62328063  0.02493550     0.10400
C804        C  0.52467682  0.59239315  0.01997621    -0.16900
C805        C  0.48169474  0.57561683  0.53095847    -0.27300
C806        C  0.44047441  0.58988434  0.54820843     0.18700
C807        C  0.48503732  0.67043041  0.54529241     0.12700
C808        C  0.57244358  0.64070202  0.01085812    -0.11700
H809        H  0.55578103  0.58133839  0.00630683     0.13000
C810        C  0.39267061  0.57286164  0.55905817    -0.22500
H811        H  0.41148458  0.63206992  0.56658079     0.08600
C812        C  0.45499979  0.68830906  0.52302568     0.04900
C813        C  0.46027549  0.71940085  0.52473636    -0.19700
C814        C  0.49562520  0.73291615  0.54766898    -0.12000
C815        C  0.52459800  0.71493367  0.57069161     0.13700
C816        C  0.51851260  0.68388164  0.56935191    -0.22500
C817        C  0.41865093  0.67458882  0.49675928    -0.05500
H818        H  0.43770772  0.73322327  0.50739239     0.15200
C819        C  0.56117366  0.72817563  0.59719308    -0.15700
H820        H  0.54105189  0.66987594  0.58650266     0.09500
H821        H  0.36344062  0.58771354  0.57096599     0.07400
H822        H  0.40272585  0.55563452  0.57858169     0.08600
H823        H  0.37491852  0.56195682  0.53593306     0.07600
H824        H  0.59307173  0.65209037  0.03249912     0.02500
H825        H  0.55892728  0.65758248  0.99184744     0.03000
H826        H  0.60045701  0.62605986  0.99735474     0.06500
H827        H  0.39911799  0.69181201  0.48084092     0.05500
H828        H  0.38838689  0.66132200  0.51038169    -0.00300
H829        H  0.44041237  0.65984985  0.97881795     0.01200
H830        H  0.57750441  0.71084089  0.61454746     0.04800
H831        H  0.54047278  0.74446705  0.61380214     0.06800
H832        H  0.59407459  0.73936485  0.58384568     0.07600
C833        C  0.22408847  0.84588091  0.57506797    -0.22000
C834        C  0.26161018  0.86550821  0.56180966     0.10000
C835        C  0.24836883  0.89502281  0.55353032     0.10400
C836        C  0.19770322  0.90451417  0.55940145    -0.16900
C837        C  0.15992819  0.88499762  0.57288564    -0.27300
C838        C  0.17336044  0.85525948  0.58106819     0.18700
C839        C  0.31478540  0.85466856  0.55725512     0.12700
C840        C  0.28768310  0.91635373  0.53839648    -0.11700
H841        H  0.18735050  0.92725094  0.55311740     0.13000
C842        C  0.13653650  0.83314866  0.59762031    -0.22500
H843        H  0.23483431  0.82322910  0.58150994     0.08600
C844        C  0.35110710  0.85635269  0.58458838     0.04900
C845        C  0.40038944  0.84437518  0.57959194    -0.19700
C846        C  0.41335561  0.83023908  0.54820486    -0.12000
C847        C  0.37743997  0.82939580  0.52049078     0.13700
C848        C  0.32845831  0.84169242  0.52538831    -0.22500
C849        C  0.33721585  0.86988098  0.61929121    -0.05500
H850        H  0.42795398  0.84462701  0.60085583     0.15200
C851        C  0.38953805  0.81571666  0.48554065    -0.15700
H852        H  0.30043159  0.84073639  0.50442184     0.09500
H853        H  0.15361200  0.82463016  0.62218733     0.07400
H854        H  0.13012643  0.81410167  0.57958813     0.08600
H855        H  0.09866607  0.84266643  0.60455047     0.07600
H856        H  0.30248355  0.90741854  0.51332443     0.02500
H857        H  0.32038873  0.91927186  0.55679212     0.03000
H858        H  0.27086403  0.93861038  0.53330795     0.06500
H859        H  0.37009413  0.86927921  0.63784141     0.05500
H860        H  0.30439214  0.85732844  0.63105607    -0.00300
H861        H  0.32596435  0.89348496  0.61570211     0.01200
H862        H  0.36290162  0.79665659  0.98063369     0.04800
H863        H  0.42976883  0.80764710  0.48362242     0.06800
H864        H  0.38417940  0.83264883  0.96475264     0.07600
C865        C  0.66703880  0.85353911  0.58395677    -0.22000
C866        C  0.70415148  0.84591495  0.55898959     0.10000
C867        C  0.69075510  0.82684427  0.53118176     0.10400
C868        C  0.64013637  0.81563309  0.52907951    -0.16900
C869        C  0.60280221  0.82318807  0.55410544    -0.27300
C870        C  0.61652273  0.84221595  0.58212338     0.18700
C871        C  0.75701599  0.85797434  0.56293662     0.12700
C872        C  0.72981182  0.81847804  0.50380469    -0.11700
H873        H  0.62958085  0.80084729  0.50781672     0.13000
C874        C  0.58013444  0.84998699  0.61142866    -0.22500
H875        H  0.67793191  0.86801149  0.60544891     0.08600
C876        C  0.76960404  0.88716735  0.55220900     0.04900
C877        C  0.81964478  0.89818409  0.55790318    -0.19700
C878        C  0.85724033  0.88070316  0.57420562    -0.12000
C879        C  0.84412577  0.85158927  0.58575605     0.13700
C880        C  0.79426965  0.84044134  0.57934261    -0.22500
C881        C  0.73024811  0.90658027  0.53466199    -0.05500
H882        H  0.82960344  0.92056807  0.54939193     0.15200
C883        C  0.88012452  0.83227350  0.60660558    -0.15700
H884        H  0.78380412  0.81821677  0.58818705     0.09500
H885        H  0.57389974  0.87443574  0.61175501     0.07400
H886        H  0.59746788  0.84326968  0.63667971     0.08600
H887        H  0.54210149  0.83868494  0.60957785     0.07600
H888        H  0.76252160  0.80665947  0.51614034     0.02500
H889        H  0.74462163  0.83889377  0.49066243     0.03000
H890        H  0.71275752  0.80360078  0.98362892     0.06500
H891        H  0.74666530  0.92873714  0.52761245     0.05500
H892        H  0.69700140  0.91017918  0.55243186    -0.00300
H893        H  0.71637057  0.89562174  0.51041314     0.01200
H894        H  0.86105876  0.82574735  0.63147596     0.04800
H895        H  0.91681381  0.84352823  0.61367587     0.06800
H896        H  0.88902675  0.81178627  0.59159555     0.07600
C897        C  0.14169904  0.57763357  0.78996758    -0.22000
C898        C  0.15740911  0.56843350  0.82319137     0.10000
C899        C  0.12426962  0.57247327  0.85203521     0.10400
C900        C  0.07632186  0.58618979  0.84707276    -0.16900
C901        C  0.06135916  0.59634725  0.81404342    -0.27300
C902        C  0.09399132  0.59157519  0.78498806     0.18700
C903        C  0.21027890  0.55674922  0.82767286     0.12700
C904        C  0.14002185  0.56280103  0.88807253    -0.11700
H905        H  0.05106481  0.58984676  0.86922367     0.13000
C906        C  0.07959873  0.60067948  0.74845020    -0.22500
H907        H  0.16726564  0.57439162  0.76787986     0.08600
C908        C  0.22158714  0.52630232  0.82345578     0.04900
C909        C  0.27234868  0.51653627  0.82885494    -0.19700
C910        C  0.31219795  0.53659134  0.83808698    -0.12000
C911        C  0.30049986  0.56722802  0.84210951     0.13700
C912        C  0.24968640  0.57682599  0.83678783    -0.22500
C913        C  0.18004330  0.50419742  0.81348119    -0.05500
H914        H  0.28096072  0.49309553  0.82570809     0.15200
C915        C  0.34059525  0.58989554  0.85314663    -0.15700
H916        H  0.24036253  0.60016368  0.84006035     0.09500
H917        H  0.07967238  0.58076628  0.73123553     0.07400
H918        H  0.10830592  0.61711951  0.73844971     0.08600
H919        H  0.04078199  0.61075784  0.74679768     0.07600
H920        H  0.17579642  0.57481429  0.89600085     0.02500
H921        H  0.14724974  0.53845388  0.88824094     0.03000
H922        H  0.10960171  0.56757946  0.90769443     0.06500
H923        H  0.19536187  0.48122481  0.81132665     0.05500
H924        H  0.16333468  0.51042603  0.78787899    -0.00300
H925        H  0.14902798  0.50410375  0.83350273     0.01200
H926        H  0.32371296  0.61235844  0.85674687     0.04800
H927        H  0.37106161  0.59189224  0.83287908     0.06800
H928        H  0.35799092  0.58313578  0.87835905     0.07600
C929        C  0.80911593  0.56858881  0.84802010    -0.22000
C930        C  0.77148753  0.57438829  0.82268893     0.10000
C931        C  0.78405607  0.59248769  0.79375977     0.10400
C932        C  0.83376441  0.60494638  0.79120257    -0.16900
C933        C  0.87145302  0.59932790  0.81657680    -0.27300
C934        C  0.85920070  0.58066732  0.84520104     0.18700
C935        C  0.71863928  0.56212040  0.82751687     0.12700
C936        C  0.74522776  0.59837806  0.76540574    -0.11700
H937        H  0.84337524  0.61912147  0.76918578     0.13000
C938        C  0.89795483  0.57442276  0.87349632    -0.22500
H939        H  0.79896338  0.55483823  0.87028895     0.08600
C940        C  0.70745526  0.53156986  0.82285692     0.04900
C941        C  0.65678767  0.52116927  0.82815145    -0.19700
C942        C  0.61692736  0.54060015  0.83777149    -0.12000
C943        C  0.62836499  0.57130526  0.84251660     0.13700
C944        C  0.67907642  0.58157411  0.83713862    -0.22500
C945        C  0.74871793  0.51007546  0.81176212    -0.05500
H946        H  0.64812586  0.49766365  0.82454322     0.15200
C947        C  0.58942993  0.59383442  0.85476853    -0.15700
H948        H  0.68812591  0.60500035  0.84108728     0.09500
H949        H  0.93113205  0.56202340  0.86256303     0.07400
H950        H  0.88092408  0.56066835  0.89475639     0.08600
H951        H  0.91190110  0.59571967  0.88504838     0.07600
H952        H  0.71161622  0.61044096  0.77623722     0.02500
H953        H  0.73184655  0.57691479  0.75397815     0.03000
H954        H  0.76199936  0.61219080  0.74410740     0.06500
H955        H  0.73300728  0.48713963  0.80832063     0.05500
H956        H  0.77953353  0.50920522  0.83179702    -0.00300
H957        H  0.76573891  0.51739873  0.78654479     0.01200
H958        H  0.60413382  0.60505351  0.87864176     0.04800
H959        H  0.55139489  0.58413453  0.86158438     0.06800
H960        H  0.58389815  0.61090350  0.83416902     0.07600
C961        C  0.00143999  0.73529701  0.76510705    -0.22000
C962        C  0.97067881  0.75334711  0.78635380     0.10000
C963        C  0.93912809  0.74018172  0.81221154     0.10400
C964        C  0.93935462  0.70909168  0.81635549    -0.16900
C965        C  0.97111493  0.69097566  0.79566047    -0.27300
C966        C  0.00244351  0.70427031  0.76958023     0.18700
C967        C  0.97280371  0.78601317  0.78099546     0.12700
C968        C  0.90614331  0.75896416  0.83581593    -0.11700
H969        H  0.91532752  0.69889729  0.83632492     0.13000
C970        C  0.03580578  0.68591821  0.74571336    -0.22500
H971        H  0.02511905  0.74566523  0.74506756     0.08600
C972        C  0.01585179  0.80310127  0.79194344     0.04900
C973        C  0.01835202  0.83352256  0.78366928    -0.19700
C974        C  0.97887524  0.84715217  0.76462050    -0.12000
C975        C  0.93462653  0.83028648  0.75501482     0.13700
C976        C  0.93238305  0.79982707  0.76313363    -0.22500
C977        C  0.05928477  0.78916999  0.81210317    -0.05500
H978        H  0.05210884  0.84653489  0.79103261     0.15200
C979        C  0.88907854  0.84367027  0.73645279    -0.15700
H980        H  0.89917724  0.78664410  0.75504966     0.09500
H981        H  0.06648852  0.67477128  0.76091214     0.07400
H982        H  0.05512974  0.69989051  0.72554989     0.08600
H983        H  0.01176751  0.66890480  0.73214010     0.07600
H984        H  0.87755315  0.77142271  0.82013659     0.02500
H985        H  0.93091751  0.77503488  0.85032770     0.03000
H986        H  0.88466232  0.74514132  0.85511802     0.06500
H987        H  0.08944056  0.80584558  0.81922602     0.05500
H988        H  0.07786090  0.77159318  0.79619496    -0.00300
H989        H  0.04394147  0.77913245  0.83652246     0.01200
H990        H  0.88444077  0.83303661  0.71047159     0.04800
H991        H  0.89282985  0.86808582  0.73275225     0.06800
H992        H  0.85349467  0.83959666  0.75200476     0.07600
loop_ 
_geom_bond_atom_site_label_1 
_geom_bond_atom_site_label_2 
_geom_bond_distance 
_geom_bond_site_symmetry_2 
_ccdc_geom_bond_type 
C1            C2   1.398       .  A
C1            C6   1.397       .  A
C1          C478   1.478       .  S
C2            C3   1.405   1_655  A
C2            H7   1.084       .  S
C3            C4   1.416       .  A
C3          C101   1.481       .  S
C4            C5   1.409       .  A
C4            H8   1.083       .  S
C5            C6   1.405   1_455  A
C5           C19   1.486       .  S
C6            H9   1.084       .  S
C10         C437   1.477       .  S
C10          N11   1.358       .  A
C10          N15   1.359       .  A
N11          C12   1.357       .  A
C12         C469   1.480       .  S
C12          N13   1.358   1_655  A
N13          C14   1.358       .  A
C14         C405   1.472       .  S
C14          N15   1.358   1_455  A
O16          C19   1.272       .  A
O16         Cd21   2.536       .  S
C17          C93   1.481       .  S
C17          O26   1.265       .  A
C17          O22   1.272       .  A
O18          C24   1.268       .  A
O18         Cd21   2.454       .  S
C19          O27   1.264       .  A
C20         C382   1.472       .  S
C20          O25   1.268       .  A
C20          O23   1.266       .  A
Cd21         O28   2.433       .  S
Cd21         O27   2.402       .  S
Cd21         O26   2.466       .  S
Cd21         O22   2.451       .  S
Cd21         O25   2.453   1_455  S
Cd21         O23   2.427   1_455  S
C24         C341   1.473       .  S
C24          O28   1.266       .  A
C29         C373   1.471       .  S
C29          N30   1.356       .  A
C29          N34   1.360       .  A
N30          C31   1.355       .  A
C31         C318   1.476       .  S
C31          N32   1.355       .  A
N32          C33   1.356       .  A
C33         C350   1.467       .  S
C33          N34   1.359       .  A
C35          C36   1.398       .  A
C35         C536   1.396   1_554  A
C35         C309   1.477       .  S
C36          C37   1.406       .  A
C36          H41   1.084       .  S
C37         C534   1.418   1_554  A
C37          C73   1.483       .  S
C38          C39   1.410       .  A
C38         C533   1.418       .  A
C38          H42   1.083       .  S
C39          C40   1.403       .  A
C39          C45   1.488       .  S
C40         C531   1.396       .  A
C40          H43   1.084       .  S
O44          C47   1.272       .  A
O44         Cd49   2.453       .  S
C45          O54   1.264       .  A
C45          O50   1.271       .  A
O46          C52   1.268       .  A
O46         Cd49   2.469       .  S
C47          C65   1.478       .  S
C47          O55   1.264       .  A
C48         C414   1.487       .  S
C48          O53   1.267       .  A
C48          O51   1.267       .  A
Cd49         O56   2.437       .  S
Cd49         O55   2.448       .  S
Cd49         O54   2.405       .  S
Cd49         O50   2.543       .  S
Cd49         O53   2.459       .  S
Cd49         O51   2.461       .  S
C52         C446   1.478       .  S
C52          O56   1.265       .  A
C57         C254   1.467       .  S
C57          N58   1.360       .  A
C57          N62   1.355       .  A
N58          C59   1.360       .  A
C59         C213   1.464       .  S
C59          N60   1.353       .  A
N60          C61   1.353       .  A
C61         C277   1.464       .  S
C61          N62   1.354       .  A
C63          C64   1.394       .  A
C63          C68   1.395       .  A
C63         C286   1.469       .  S
C64          C65   1.401       .  A
C64          H69   1.084       .  S
C65          C66   1.416       .  A
C66          C67   1.410       .  A
C66          H70   1.083       .  S
C67          C68   1.404       .  A
C67          C75   1.485       .  S
C68          H71   1.084       .  S
O72          C75   1.270       .  A
O72         Cd77   2.535       .  S
C73          O82   1.266       .  A
C73          O78   1.272       .  A
O74          C80   1.268       .  A
O74         Cd77   2.470       .  S
C75          O83   1.263       .  A
C76         C181   1.475       .  S
C76          O81   1.268       .  A
C76          O79   1.265       .  A
Cd77         O84   2.440       .  S
Cd77         O83   2.407       .  S
Cd77         O82   2.460       .  S
Cd77         O78   2.466       .  S
Cd77         O81   2.466       .  S
Cd77         O79   2.443       .  S
C80         C149   1.473       .  S
C80          O84   1.266       .  A
C85         C190   1.472       .  S
C85          N86   1.354       .  A
C85          N90   1.361   1_455  A
N86          C87   1.353   1_455  A
C87         C126   1.475       .  S
C87          N88   1.355       .  A
N88          C89   1.358       .  A
C89         C158   1.481       .  S
C89          N90   1.362       .  A
C91          C92   1.394       .  A
C91         C592   1.397   1_554  A
C91         C117   1.473       .  S
C92          C93   1.401   1_545  A
C92          H97   1.084       .  S
C93         C590   1.417   1_554  A
C94          C95   1.412   1_565  A
C94         C589   1.417       .  A
C94          H98   1.083       .  S
C95          C96   1.405       .  A
C95         C103   1.488       .  S
C96         C587   1.397       .  A
C96          H99   1.084       .  S
O100        C103   1.271   1_565  A
O100       Cd105   2.533   1_565  S
C101        O110   1.264       .  A
C101        O106   1.272       .  A
O102        C108   1.269       .  A
O102       Cd105   2.471   1_655  S
C103        O111   1.265       .  A
C104        C245   1.488       .  S
C104        O109   1.268       .  A
C104        O107   1.265   1_545  A
Cd105       O112   2.414   1_455  S
Cd105       O111   2.421       .  S
Cd105       O110   2.453   1_545  S
Cd105       O106   2.471   1_545  S
Cd105       O109   2.464       .  S
Cd105       O107   2.438   1_545  S
C108        C222   1.471       .  S
C108        O112   1.265       .  A
C113        C118   1.399       .  A
C113        C610   1.400   1_455  A
C113        H123   1.085       .  S
C114        C115   1.410       .  A
C114        C609   1.400   1_655  A
C114        C119   1.474       .  S
C115        C116   1.400       .  A
C115        C120   1.507       .  S
C116        C117   1.403   1_655  A
C116        H121   1.084       .  S
C117        C614   1.415       .  A
C118        C613   1.415       .  A
C118        C122   1.508       .  S
C119        C124   1.409   1_655  A
C119        C128   1.400       .  A
C120        H136   1.109       .  S
C120        H137   1.110       .  S
C120        H138   1.111       .  S
C122        H133   1.111       .  S
C122        H134   1.110       .  S
C122        H135   1.108       .  S
C124        C125   1.400       .  A
C124        C129   1.507       .  S
C125        C126   1.405   1_455  A
C125        H130   1.085       .  S
C126        C127   1.416       .  A
C127        C128   1.400       .  A
C127        C131   1.508       .  S
C128        H132   1.085       .  S
C129        H139   1.111       .  S
C129        H140   1.109       .  S
C129        H141   1.110       .  S
C131        H143   1.110   1_554  S
C131        H144   1.109       .  S
C131        H638   1.111   1_554  S
H142        C627   1.111       .  S
C145        C146   1.400       .  A
C145        C150   1.403       .  A
C145        H155   1.085       .  S
C146        C147   1.411       .  A
C146        C151   1.478       .  S
C147        C148   1.403       .  A
C147        C152   1.507       .  S
C148        C149   1.402       .  A
C148        H153   1.084       .  S
C149        C150   1.416       .  A
C150        C154   1.508       .  S
C151        C156   1.408       .  A
C151        C160   1.400       .  A
C152        H168   1.110       .  S
C152        H169   1.110       .  S
C152        H170   1.111       .  S
C154        H165   1.111       .  S
C154        H166   1.110       .  S
C154        H167   1.108       .  S
C156        C157   1.403       .  A
C156        C161   1.506       .  S
C157        C158   1.407       .  A
C157        H162   1.084       .  S
C158        C159   1.416       .  A
C159        C160   1.404       .  A
C159        C163   1.506       .  S
C160        H164   1.084       .  S
C161        H172   1.110   1_554  S
C161        H173   1.110       .  S
C161        H667   1.111   1_554  S
C163        H174   1.109       .  S
C163        H175   1.110       .  S
C163        H176   1.111       .  S
H171        C657   1.111       .  S
C177        C178   1.400       .  A
C177        C182   1.402       .  A
C177        H187   1.085       .  S
C178        C179   1.408       .  A
C178        C183   1.477       .  S
C179        C180   1.402       .  A
C179        C184   1.506       .  S
C180        C181   1.405       .  A
C180        H185   1.084       .  S
C181        C182   1.417       .  A
C182        C186   1.509       .  S
C183        C188   1.408       .  A
C183        C192   1.402       .  A
C184        H200   1.110       .  S
C184        H201   1.110       .  S
C184        H202   1.111       .  S
C186        H197   1.110       .  S
C186        H198   1.111       .  S
C186        H199   1.106       .  S
C188        C189   1.399       .  A
C188        C193   1.507       .  S
C189        C190   1.404       .  A
C189        H194   1.085       .  S
C190        C191   1.415       .  A
C191        C192   1.404       .  A
C191        C195   1.507       .  S
C192        H196   1.085       .  S
C193        H204   1.110       .  S
C193        H205   1.110       .  S
C193        H699   1.111       .  S
C195        H206   1.111       .  S
C195        H207   1.106       .  S
C195        H208   1.110       .  S
H203        C689   1.111       .  S
C209        C210   1.401       .  A
C209        C214   1.401       .  A
C209        H219   1.085       .  S
C210        C211   1.409       .  A
C210        C215   1.474       .  S
C211        C212   1.401       .  A
C211        C216   1.506       .  S
C212        C213   1.402       .  A
C212        H217   1.085       .  S
C213        C214   1.413       .  A
C214        C218   1.508       .  S
C215        C220   1.410       .  A
C215        C224   1.398       .  A
C216        H232   1.110       .  S
C216        H233   1.110       .  S
C216        H234   1.111       .  S
C218        H229   1.111       .  S
C218        H230   1.110       .  S
C218        H231   1.108       .  S
C220        C221   1.403       .  A
C220        C225   1.506       .  S
C221        C222   1.404       .  A
C221        H226   1.084       .  S
C222        C223   1.416       .  A
C223        C224   1.399       .  A
C223        C227   1.509   1_545  S
C224        H228   1.085       .  S
C225        H235   1.111       .  S
C225        H236   1.110       .  S
C225        H237   1.110       .  S
C227        H238   1.110       .  S
C227        H239   1.107       .  S
C227        H240   1.111       .  S
C241        C242   1.397       .  A
C241        C246   1.404       .  A
C241        H251   1.083       .  S
C242        C243   1.409       .  A
C242        C247   1.477       .  S
C243        C244   1.402       .  A
C243        C248   1.507       .  S
C244        C245   1.408       .  A
C244        H249   1.083       .  S
C245        C246   1.422       .  A
C246        C250   1.508   1_545  S
C247        C252   1.411       .  A
C247        C256   1.401       .  A
C248        H264   1.110       .  S
C248        H265   1.109       .  S
C248        H266   1.111       .  S
C250        H261   1.111       .  S
C250        H262   1.111       .  S
C250        H263   1.109       .  S
C252        C253   1.400       .  A
C252        C257   1.508       .  S
C253        C254   1.400       .  A
C253        H258   1.085       .  S
C254        C255   1.415       .  A
C255        C256   1.404       .  A
C255        C259   1.507       .  S
C256        H260   1.085       .  S
C257        H267   1.111       .  S
C257        H268   1.110       .  S
C257        H269   1.109       .  S
C259        H270   1.110       .  S
C259        H271   1.108       .  S
C259        H272   1.110       .  S
C273        C274   1.400       .  A
C273        C278   1.400       .  A
C273        H283   1.084       .  S
C274        C275   1.409       .  A
C274        C279   1.470       .  S
C275        C276   1.397       .  A
C275        C280   1.508       .  S
C276        C277   1.402       .  A
C276        H281   1.084       .  S
C277        C278   1.415       .  A
C278        C282   1.508       .  S
C279        C284   1.409       .  A
C279        C288   1.400       .  A
C280        H296   1.110       .  S
C280        H297   1.111       .  S
C280        H298   1.111       .  S
C282        H293   1.110       .  S
C282        H294   1.110       .  S
C282        H295   1.107       .  S
C284        C285   1.398       .  A
C284        C289   1.507       .  S
C285        C286   1.402       .  A
C285        H290   1.084       .  S
C286        C287   1.414       .  A
C287        C288   1.400       .  A
C287        C291   1.508       .  S
C288        H292   1.084       .  S
C289        H299   1.111       .  S
C289        H300   1.110       .  S
C289        H301   1.110       .  S
C291        H302   1.110       .  S
C291        H303   1.107       .  S
C291        H304   1.111       .  S
C305        C306   1.402       .  A
C305        C310   1.405       .  A
C305        H315   1.084       .  S
C306        C803   1.411       .  A
C306        C311   1.478       .  S
C307        C308   1.399       .  A
C307        C802   1.411       .  A
C307        C312   1.508       .  S
C308        C805   1.402       .  A
C308        H313   1.084       .  S
C309        C310   1.413       .  A
C309        C804   1.402       .  A
C310        C314   1.506       .  S
C311        C316   1.411       .  A
C311        C320   1.400       .  A
C312        H328   1.109       .  S
C312        H329   1.111       .  S
C312        H330   1.111       .  S
C314        H325   1.111       .  S
C314        H326   1.109       .  S
C314        H327   1.111       .  S
C316        C317   1.402       .  A
C316        C321   1.507   1_554  S
C317        C318   1.404       .  A
C317        H322   1.085       .  S
C318        C319   1.417       .  A
C319        C320   1.401       .  A
C319        C323   1.508       .  S
C320        H324   1.085       .  S
C321        H331   1.111       .  S
C321        H332   1.110   1_556  S
C321        H829   1.110       .  S
C323        H334   1.111       .  S
C323        H335   1.110       .  S
C323        H336   1.109       .  S
H333        C817   1.110       .  S
C337        C338   1.400       .  A
C337        C342   1.402       .  A
C337        H347   1.085       .  S
C338        C339   1.407       .  A
C338        C343   1.475       .  S
C339        C340   1.401       .  A
C339        C344   1.506       .  S
C340        C341   1.405       .  A
C340        H345   1.084       .  S
C341        C342   1.417       .  A
C342        C346   1.509       .  S
C343        C348   1.411       .  A
C343        C352   1.400       .  A
C344        H360   1.110       .  S
C344        H361   1.110       .  S
C344        H362   1.111       .  S
C346        H357   1.111       .  S
C346        H358   1.110       .  S
C346        H359   1.105       .  S
C348        C349   1.402       .  A
C348        C353   1.507       .  S
C349        C350   1.402       .  A
C349        H354   1.084       .  S
C350        C351   1.413       .  A
C351        C352   1.400       .  A
C351        C355   1.507   1_554  S
C352        H356   1.084       .  S
C353        H363   1.111       .  S
C353        H364   1.110       .  S
C353        H365   1.110       .  S
C355        H367   1.109       .  S
C355        H862   1.110       .  S
C355        H864   1.111       .  S
H366        C851   1.110       .  S
H368        C851   1.111       .  S
C369        C370   1.400       .  A
C369        C374   1.401       .  A
C369        H379   1.085       .  S
C370        C371   1.409       .  A
C370        C375   1.475       .  S
C371        C372   1.402       .  A
C371        C376   1.506       .  S
C372        C373   1.405       .  A
C372        H377   1.085       .  S
C373        C374   1.415       .  A
C374        C378   1.508       .  S
C375        C380   1.408       .  A
C375        C384   1.401       .  A
C376        H392   1.110       .  S
C376        H393   1.110   1_554  S
C376        H890   1.111   1_554  S
C378        H389   1.110       .  S
C378        H390   1.111       .  S
C378        H391   1.106       .  S
C380        C381   1.400       .  A
C380        C385   1.506       .  S
C381        C382   1.404       .  A
C381        H386   1.085       .  S
C382        C383   1.417       .  A
C383        C384   1.402       .  A
C383        C387   1.509       .  S
C384        H388   1.085       .  S
C385        H395   1.111       .  S
C385        H396   1.110       .  S
C385        H397   1.110       .  S
C387        H398   1.111       .  S
C387        H399   1.106       .  S
C387        H400   1.110       .  S
H394        C872   1.111       .  S
C401        C402   1.401       .  A
C401        C406   1.403       .  A
C401        H411   1.085       .  S
C402        C403   1.411       .  A
C402        C407   1.481       .  S
C403        C404   1.404       .  A
C403        C408   1.506       .  S
C404        C405   1.402       .  A
C404        H409   1.084       .  S
C405        C406   1.415       .  A
C406        C410   1.508       .  S
C407        C412   1.409       .  A
C407        C416   1.399       .  A
C408        H424   1.110       .  S
C408        H425   1.110       .  S
C408        H426   1.111       .  S
C410        H421   1.111       .  S
C410        H422   1.110       .  S
C410        H423   1.108       .  S
C412        C413   1.405       .  A
C412        C417   1.506       .  S
C413        C414   1.408       .  A
C413        H418   1.084       .  S
C414        C415   1.419       .  A
C415        C416   1.404       .  A
C415        C419   1.508       .  S
C416        H420   1.084       .  S
C417        H427   1.111       .  S
C417        H428   1.110       .  S
C417        H429   1.110       .  S
C419        H430   1.111       .  S
C419        H431   1.109       .  S
C419        H432   1.111       .  S
C433        C434   1.403       .  A
C433        C438   1.405       .  A
C433        H443   1.084       .  S
C434        C435   1.411       .  A
C434        C439   1.482       .  S
C435        C436   1.402       .  A
C435        C440   1.507       .  S
C436        C437   1.404       .  A
C436        H441   1.084       .  S
C437        C438   1.414       .  A
C438        C442   1.507       .  S
C439        C444   1.410       .  A
C439        C448   1.401       .  A
C440        H456   1.109       .  S
C440        H457   1.110       .  S
C440        H458   1.111       .  S
C442        H453   1.110       .  S
C442        H454   1.111       .  S
C442        H455   1.111       .  S
C444        C445   1.403       .  A
C444        C449   1.507       .  S
C445        C446   1.406       .  A
C445        H450   1.085       .  S
C446        C447   1.418       .  A
C447        C448   1.403       .  A
C447        C451   1.509       .  S
C448        H452   1.085       .  S
C449        H459   1.111       .  S
C449        H460   1.109       .  S
C449        H461   1.110       .  S
C451        H462   1.110       .  S
C451        H463   1.104       .  S
C451        H464   1.111       .  S
C465        C466   1.401   1_455  A
C465        C470   1.403       .  A
C465        H475   1.084       .  S
C466        C467   1.410       .  A
C466        C471   1.480       .  S
C467        C468   1.404       .  A
C467        C472   1.506       .  S
C468        C469   1.406       .  A
C468        H473   1.084       .  S
C469        C470   1.415   1_655  A
C470        C474   1.507       .  S
C471        C476   1.411   1_655  A
C471        C480   1.401       .  A
C472        H488   1.110       .  S
C472        H489   1.110       .  S
C472        H490   1.111       .  S
C474        H485   1.109       .  S
C474        H486   1.111       .  S
C474        H487   1.110       .  S
C476        C477   1.402       .  A
C476        C481   1.506       .  S
C477        C478   1.402   1_455  A
C477        H482   1.084       .  S
C478        C479   1.416       .  A
C479        C480   1.402       .  A
C479        C483   1.508       .  S
C480        H484   1.085       .  S
C481        H491   1.111       .  S
C481        H492   1.110       .  S
C481        H493   1.110       .  S
C483        H494   1.110       .  S
C483        H495   1.108       .  S
C483        H496   1.110       .  S
C497        C498   1.398       .  A
C497        C502   1.397       .  A
C497        C974   1.478       .  S
C498        C499   1.405   1_655  A
C498        H503   1.084       .  S
C499        C500   1.416       .  A
C499        C597   1.481       .  S
C500        C501   1.409       .  A
C500        H504   1.083       .  S
C501        C502   1.405   1_455  A
C501        C515   1.486       .  S
C502        H505   1.084       .  S
C506        C933   1.477       .  S
C506        N507   1.358       .  A
C506        N511   1.359       .  A
N507        C508   1.357       .  A
C508        C965   1.480       .  S
C508        N509   1.358   1_655  A
N509        C510   1.358       .  A
C510        C901   1.472       .  S
C510        N511   1.358   1_455  A
O512        C515   1.272       .  A
O512       Cd517   2.536       .  S
C513        C589   1.481       .  S
C513        O522   1.265       .  A
C513        O518   1.272       .  A
O514        C520   1.268       .  A
O514       Cd517   2.454       .  S
C515        O523   1.264       .  A
C516        C878   1.472       .  S
C516        O521   1.268       .  A
C516        O519   1.266       .  A
Cd517       O524   2.433       .  S
Cd517       O523   2.402       .  S
Cd517       O522   2.466       .  S
Cd517       O518   2.451       .  S
Cd517       O521   2.453   1_455  S
Cd517       O519   2.427   1_455  S
C520        C837   1.473       .  S
C520        O524   1.266       .  A
C525        C869   1.471       .  S
C525        N526   1.356       .  A
C525        N530   1.360       .  A
N526        C527   1.355       .  A
C527        C814   1.476       .  S
C527        N528   1.355       .  A
N528        C529   1.356       .  A
C529        C846   1.467       .  S
C529        N530   1.359       .  A
C531        C532   1.398       .  A
C531        C805   1.477       .  S
C532        C533   1.406       .  A
C532        H537   1.084       .  S
C533        C569   1.483       .  S
C534        C535   1.410       .  A
C534        H538   1.083       .  S
C535        C536   1.403       .  A
C535        C541   1.488       .  S
C536        H539   1.084       .  S
O540        C543   1.272       .  A
O540       Cd545   2.453       .  S
C541        O550   1.264       .  A
C541        O546   1.271       .  A
O542        C548   1.268       .  A
O542       Cd545   2.469       .  S
C543        C561   1.478       .  S
C543        O551   1.264       .  A
C544        C910   1.487       .  S
C544        O549   1.267       .  A
C544        O547   1.267       .  A
Cd545       O552   2.437       .  S
Cd545       O551   2.448       .  S
Cd545       O550   2.405       .  S
Cd545       O546   2.543       .  S
Cd545       O549   2.459       .  S
Cd545       O547   2.461       .  S
C548        C942   1.478       .  S
C548        O552   1.265       .  A
C553        C750   1.467       .  S
C553        N554   1.360       .  A
C553        N558   1.355       .  A
N554        C555   1.360       .  A
C555        C709   1.464       .  S
C555        N556   1.353       .  A
N556        C557   1.353       .  A
C557        C773   1.464       .  S
C557        N558   1.354       .  A
C559        C560   1.394       .  A
C559        C564   1.395       .  A
C559        C782   1.469       .  S
C560        C561   1.401       .  A
C560        H565   1.084       .  S
C561        C562   1.416       .  A
C562        C563   1.410       .  A
C562        H566   1.083       .  S
C563        C564   1.404       .  A
C563        C571   1.485       .  S
C564        H567   1.084       .  S
O568        C571   1.270       .  A
O568       Cd573   2.535       .  S
C569        O578   1.266       .  A
C569        O574   1.272       .  A
O570        C576   1.268       .  A
O570       Cd573   2.470       .  S
C571        O579   1.263       .  A
C572        C677   1.475       .  S
C572        O577   1.268       .  A
C572        O575   1.265       .  A
Cd573       O580   2.440       .  S
Cd573       O579   2.407       .  S
Cd573       O578   2.460       .  S
Cd573       O574   2.466       .  S
Cd573       O577   2.466       .  S
Cd573       O575   2.443       .  S
C576        C645   1.473       .  S
C576        O580   1.266       .  A
C581        C686   1.472       .  S
C581        N582   1.354       .  A
C581        N586   1.361   1_455  A
N582        C583   1.353   1_455  A
C583        C622   1.475       .  S
C583        N584   1.355       .  A
N584        C585   1.358       .  A
C585        C654   1.481       .  S
C585        N586   1.362       .  A
C587        C588   1.394       .  A
C587        C613   1.473       .  S
C588        C589   1.401   1_545  A
C588        H593   1.084       .  S
C590        C591   1.412   1_565  A
C590        H594   1.083       .  S
C591        C592   1.405       .  A
C591        C599   1.488       .  S
C592        H595   1.084       .  S
O596        C599   1.271   1_565  A
O596       Cd601   2.533   1_565  S
C597        O606   1.264       .  A
C597        O602   1.272       .  A
O598        C604   1.269       .  A
O598       Cd601   2.471   1_655  S
C599        O607   1.265       .  A
C600        C741   1.488       .  S
C600        O605   1.268       .  A
C600        O603   1.265   1_545  A
Cd601       O608   2.414   1_455  S
Cd601       O607   2.421       .  S
Cd601       O606   2.453   1_545  S
Cd601       O602   2.471   1_545  S
Cd601       O605   2.464       .  S
Cd601       O603   2.438   1_545  S
C604        C718   1.471       .  S
C604        O608   1.265       .  A
C609        C614   1.399       .  A
C609        H619   1.085       .  S
C610        C611   1.410       .  A
C610        C615   1.474       .  S
C611        C612   1.400       .  A
C611        C616   1.507       .  S
C612        C613   1.403   1_655  A
C612        H617   1.084       .  S
C614        C618   1.508   1_554  S
C615        C620   1.409   1_655  A
C615        C624   1.400       .  A
C616        H632   1.109       .  S
C616        H633   1.110       .  S
C616        H634   1.111       .  S
C618        H629   1.111   1_556  S
C618        H630   1.110       .  S
C618        H631   1.108       .  S
C620        C621   1.400       .  A
C620        C625   1.507       .  S
C621        C622   1.405   1_455  A
C621        H626   1.085       .  S
C622        C623   1.416       .  A
C623        C624   1.400       .  A
C623        C627   1.508       .  S
C624        H628   1.085       .  S
C625        H635   1.111       .  S
C625        H636   1.109       .  S
C625        H637   1.110       .  S
C627        H639   1.110       .  S
C627        H640   1.109       .  S
C641        C642   1.400       .  A
C641        C646   1.403       .  A
C641        H651   1.085       .  S
C642        C643   1.411       .  A
C642        C647   1.478       .  S
C643        C644   1.403       .  A
C643        C648   1.507       .  S
C644        C645   1.402       .  A
C644        H649   1.084       .  S
C645        C646   1.416       .  A
C646        C650   1.508       .  S
C647        C652   1.408       .  A
C647        C656   1.400       .  A
C648        H664   1.110       .  S
C648        H665   1.110       .  S
C648        H666   1.111       .  S
C650        H661   1.110       .  S
C650        H662   1.110       .  S
C650        H663   1.108       .  S
C652        C653   1.403       .  A
C652        C657   1.506       .  S
C653        C654   1.407       .  A
C653        H658   1.084       .  S
C654        C655   1.416       .  A
C655        C656   1.404       .  A
C655        C659   1.506       .  S
C656        H660   1.084       .  S
C657        H668   1.110       .  S
C657        H669   1.110       .  S
C659        H670   1.109       .  S
C659        H671   1.110       .  S
C659        H672   1.111       .  S
C673        C674   1.400       .  A
C673        C678   1.402       .  A
C673        H683   1.085       .  S
C674        C675   1.408       .  A
C674        C679   1.477       .  S
C675        C676   1.402       .  A
C675        C680   1.506       .  S
C676        C677   1.405       .  A
C676        H681   1.084       .  S
C677        C678   1.417       .  A
C678        C682   1.509       .  S
C679        C684   1.408       .  A
C679        C688   1.402       .  A
C680        H696   1.110       .  S
C680        H697   1.110       .  S
C680        H698   1.111       .  S
C682        H693   1.110       .  S
C682        H694   1.111       .  S
C682        H695   1.106       .  S
C684        C685   1.399       .  A
C684        C689   1.507       .  S
C685        C686   1.404       .  A
C685        H690   1.085       .  S
C686        C687   1.415       .  A
C687        C688   1.404       .  A
C687        C691   1.507       .  S
C688        H692   1.085       .  S
C689        H700   1.110       .  S
C689        H701   1.110       .  S
C691        H702   1.111       .  S
C691        H703   1.106       .  S
C691        H704   1.110       .  S
C705        C706   1.401       .  A
C705        C710   1.401       .  A
C705        H715   1.085       .  S
C706        C707   1.409       .  A
C706        C711   1.474       .  S
C707        C708   1.401       .  A
C707        C712   1.506       .  S
C708        C709   1.402       .  A
C708        H713   1.085       .  S
C709        C710   1.413       .  A
C710        C714   1.508       .  S
C711        C716   1.410       .  A
C711        C720   1.398       .  A
C712        H728   1.110       .  S
C712        H729   1.110       .  S
C712        H730   1.111       .  S
C714        H725   1.111       .  S
C714        H726   1.110       .  S
C714        H727   1.108       .  S
C716        C717   1.403       .  A
C716        C721   1.506       .  S
C717        C718   1.404       .  A
C717        H722   1.084       .  S
C718        C719   1.416       .  A
C719        C720   1.399       .  A
C719        C723   1.509   1_545  S
C720        H724   1.085       .  S
C721        H731   1.111       .  S
C721        H732   1.110       .  S
C721        H733   1.110       .  S
C723        H734   1.110       .  S
C723        H735   1.107       .  S
C723        H736   1.111       .  S
C737        C738   1.397       .  A
C737        C742   1.404       .  A
C737        H747   1.083       .  S
C738        C739   1.409       .  A
C738        C743   1.477       .  S
C739        C740   1.402       .  A
C739        C744   1.507       .  S
C740        C741   1.408       .  A
C740        H745   1.083       .  S
C741        C742   1.422       .  A
C742        C746   1.508   1_545  S
C743        C748   1.411       .  A
C743        C752   1.401       .  A
C744        H760   1.110       .  S
C744        H761   1.109       .  S
C744        H762   1.111       .  S
C746        H757   1.111       .  S
C746        H758   1.111       .  S
C746        H759   1.109       .  S
C748        C749   1.400       .  A
C748        C753   1.508       .  S
C749        C750   1.400       .  A
C749        H754   1.085       .  S
C750        C751   1.415       .  A
C751        C752   1.404       .  A
C751        C755   1.507       .  S
C752        H756   1.085       .  S
C753        H763   1.111       .  S
C753        H764   1.110       .  S
C753        H765   1.109       .  S
C755        H766   1.110       .  S
C755        H767   1.108       .  S
C755        H768   1.110       .  S
C769        C770   1.400       .  A
C769        C774   1.400       .  A
C769        H779   1.084       .  S
C770        C771   1.409       .  A
C770        C775   1.470       .  S
C771        C772   1.397       .  A
C771        C776   1.508       .  S
C772        C773   1.402       .  A
C772        H777   1.084       .  S
C773        C774   1.415       .  A
C774        C778   1.508       .  S
C775        C780   1.409       .  A
C775        C784   1.400       .  A
C776        H792   1.110       .  S
C776        H793   1.111       .  S
C776        H794   1.111       .  S
C778        H789   1.110       .  S
C778        H790   1.110       .  S
C778        H791   1.107       .  S
C780        C781   1.398       .  A
C780        C785   1.507       .  S
C781        C782   1.402       .  A
C781        H786   1.084       .  S
C782        C783   1.414       .  A
C783        C784   1.400       .  A
C783        C787   1.508       .  S
C784        H788   1.084       .  S
C785        H795   1.111       .  S
C785        H796   1.110       .  S
C785        H797   1.110       .  S
C787        H798   1.110       .  S
C787        H799   1.107       .  S
C787        H800   1.111       .  S
C801        C802   1.402       .  A
C801        C806   1.405       .  A
C801        H811   1.084       .  S
C802        C807   1.478       .  S
C803        C804   1.399       .  A
C803        C808   1.508       .  S
C804        H809   1.084       .  S
C805        C806   1.413       .  A
C806        C810   1.506       .  S
C807        C812   1.411       .  A
C807        C816   1.400       .  A
C808        H824   1.109       .  S
C808        H825   1.111   1_554  S
C808        H826   1.111   1_554  S
C810        H821   1.111       .  S
C810        H822   1.109       .  S
C810        H823   1.111       .  S
C812        C813   1.402       .  A
C812        C817   1.507       .  S
C813        C814   1.404       .  A
C813        H818   1.085       .  S
C814        C815   1.417       .  A
C815        C816   1.401       .  A
C815        C819   1.508       .  S
C816        H820   1.085       .  S
C817        H827   1.111       .  S
C817        H828   1.110       .  S
C819        H830   1.111       .  S
C819        H831   1.110       .  S
C819        H832   1.109       .  S
C833        C834   1.400       .  A
C833        C838   1.402       .  A
C833        H843   1.085       .  S
C834        C835   1.407       .  A
C834        C839   1.475       .  S
C835        C836   1.401       .  A
C835        C840   1.506       .  S
C836        C837   1.405       .  A
C836        H841   1.084       .  S
C837        C838   1.417       .  A
C838        C842   1.509       .  S
C839        C844   1.411       .  A
C839        C848   1.400       .  A
C840        H856   1.110       .  S
C840        H857   1.110       .  S
C840        H858   1.111       .  S
C842        H853   1.111       .  S
C842        H854   1.110       .  S
C842        H855   1.105       .  S
C844        C845   1.402       .  A
C844        C849   1.507       .  S
C845        C846   1.402       .  A
C845        H850   1.084       .  S
C846        C847   1.413       .  A
C847        C848   1.400       .  A
C847        C851   1.507       .  S
C848        H852   1.084       .  S
C849        H859   1.111       .  S
C849        H860   1.110       .  S
C849        H861   1.110       .  S
C851        H863   1.109       .  S
C865        C866   1.400       .  A
C865        C870   1.401       .  A
C865        H875   1.085       .  S
C866        C867   1.409       .  A
C866        C871   1.475       .  S
C867        C868   1.402       .  A
C867        C872   1.506       .  S
C868        C869   1.405       .  A
C868        H873   1.085       .  S
C869        C870   1.416       .  A
C870        C874   1.508       .  S
C871        C876   1.408       .  A
C871        C880   1.401       .  A
C872        H888   1.110       .  S
C872        H889   1.110       .  S
C874        H885   1.110       .  S
C874        H886   1.111       .  S
C874        H887   1.106       .  S
C876        C877   1.400       .  A
C876        C881   1.506       .  S
C877        C878   1.404       .  A
C877        H882   1.085       .  S
C878        C879   1.417       .  A
C879        C880   1.402       .  A
C879        C883   1.509       .  S
C880        H884   1.085       .  S
C881        H891   1.111       .  S
C881        H892   1.110       .  S
C881        H893   1.110       .  S
C883        H894   1.111       .  S
C883        H895   1.106       .  S
C883        H896   1.110       .  S
C897        C898   1.401       .  A
C897        C902   1.403       .  A
C897        H907   1.085       .  S
C898        C899   1.411       .  A
C898        C903   1.481       .  S
C899        C900   1.404       .  A
C899        C904   1.506       .  S
C900        C901   1.402       .  A
C900        H905   1.084       .  S
C901        C902   1.415       .  A
C902        C906   1.508       .  S
C903        C908   1.409       .  A
C903        C912   1.399       .  A
C904        H920   1.110       .  S
C904        H921   1.110       .  S
C904        H922   1.111       .  S
C906        H917   1.111       .  S
C906        H918   1.110       .  S
C906        H919   1.108       .  S
C908        C909   1.405       .  A
C908        C913   1.506       .  S
C909        C910   1.408       .  A
C909        H914   1.084       .  S
C910        C911   1.419       .  A
C911        C912   1.404       .  A
C911        C915   1.508       .  S
C912        H916   1.084       .  S
C913        H923   1.111       .  S
C913        H924   1.110       .  S
C913        H925   1.110       .  S
C915        H926   1.111       .  S
C915        H927   1.109       .  S
C915        H928   1.111       .  S
C929        C930   1.403       .  A
C929        C934   1.405       .  A
C929        H939   1.084       .  S
C930        C931   1.411       .  A
C930        C935   1.482       .  S
C931        C932   1.402       .  A
C931        C936   1.507       .  S
C932        C933   1.404       .  A
C932        H937   1.084       .  S
C933        C934   1.414       .  A
C934        C938   1.507       .  S
C935        C940   1.410       .  A
C935        C944   1.401       .  A
C936        H952   1.109       .  S
C936        H953   1.110       .  S
C936        H954   1.111       .  S
C938        H949   1.110       .  S
C938        H950   1.111       .  S
C938        H951   1.111       .  S
C940        C941   1.403       .  A
C940        C945   1.507       .  S
C941        C942   1.406       .  A
C941        H946   1.085       .  S
C942        C943   1.418       .  A
C943        C944   1.403       .  A
C943        C947   1.509       .  S
C944        H948   1.085       .  S
C945        H955   1.111       .  S
C945        H956   1.109       .  S
C945        H957   1.110       .  S
C947        H958   1.110       .  S
C947        H959   1.104       .  S
C947        H960   1.111       .  S
C961        C962   1.401   1_455  A
C961        C966   1.403       .  A
C961        H971   1.084       .  S
C962        C963   1.410       .  A
C962        C967   1.480       .  S
C963        C964   1.404       .  A
C963        C968   1.506       .  S
C964        C965   1.406       .  A
C964        H969   1.084       .  S
C965        C966   1.415   1_655  A
C966        C970   1.507       .  S
C967        C972   1.411   1_655  A
C967        C976   1.401       .  A
C968        H984   1.110       .  S
C968        H985   1.110       .  S
C968        H986   1.111       .  S
C970        H981   1.109       .  S
C970        H982   1.111       .  S
C970        H983   1.110       .  S
C972        C973   1.402       .  A
C972        C977   1.506       .  S
C973        C974   1.402   1_455  A
C973        H978   1.084       .  S
C974        C975   1.416       .  A
C975        C976   1.402       .  A
C975        C979   1.508       .  S
C976        H980   1.085       .  S
C977        H987   1.111       .  S
C977        H988   1.110       .  S
C977        H989   1.110       .  S
C979        H990   1.110       .  S
C979        H991   1.108       .  S
C979        H992   1.110       .  S
