geometry optimzed in LAMMPS
_audit_creation_date              2020-12-01 
_audit_creation_method            'lammps2cif' 
_symmetry_space_group_name_H-M    'P1' 
_symmetry_Int_Tables_number       1 
_symmetry_cell_setting            triclinic 
loop_ 
_symmetry_equiv_pos_as_xyz 
  x,y,z 
_cell_length_a                    40.18172995 
_cell_length_b                    20.209531560497005 
_cell_length_c                    20.361923373871313 
_cell_angle_alpha                 89.99689826492938 
_cell_angle_beta                  90.00435710690418 
_cell_angle_gamma                 86.68675237627365 
loop_ 
_atom_site_label 
_atom_site_type_symbol 
_atom_site_fract_x 
_atom_site_fract_y 
_atom_site_fract_z 
_atom_site_charge 
O1          O  0.26550787  0.20949260  0.52105494    -0.75000
O2          O  0.35481534  0.22126971  0.49151712    -0.75000
O3          O  0.31485413  0.17394380  0.08983418    -0.75000
O4          O  0.29522561  0.25106352  0.41749298    -0.75100
O5          O  0.28678732  0.34735962  0.46460392    -0.75000
O6          O  0.30030722  0.26523425  0.13768579    -0.75000
O7          O  0.34939645  0.31910664  0.04239474    -0.75000
O8          O  0.25953421  0.30919747  0.06989749    -0.75000
Ni9        Ni  0.30872156  0.20989989  0.50277157     1.25400
Ni10       Ni  0.30168188  0.31647315  0.05548624     1.25400
C11         C  0.25083318  0.26473173  0.03245971     0.87200
C12         C  0.36759153  0.27227155  0.51571695     0.87100
C13         C  0.29449012  0.20307151  0.12987203     0.87200
C14         C  0.28131800  0.31075525  0.41326872     0.87300
O15         O  0.22482973  0.23947463  0.44568604    -0.75000
O16         O  0.13984346  0.17684789  0.45946945    -0.75000
O17         O  0.18216737  0.25154951  0.36929949    -0.75000
O18         O  0.20204050  0.17306813  0.03771418    -0.75100
O19         O  0.17811777  0.25606404  0.09055050    -0.75000
O20         O  0.16713532  0.34313381  0.41849067    -0.75000
O21         O  0.12356957  0.27499985  0.00195254    -0.75000
O22         O  0.20774896  0.32400317  0.01144860    -0.75000
Ni23       Ni  0.18597280  0.20413757  0.45103677     1.25400
Ni24       Ni  0.16689610  0.30315854  0.00694743     1.25400
C25         C  0.22842799  0.28179349  0.99020696     0.87200
C26         C  0.11675201  0.21786610  0.98193943     0.87100
C27         C  0.18719126  0.31396844  0.37625377     0.87200
C28         C  0.19967030  0.20472969  0.09134448     0.87300
C29         C  0.21633024  0.34958213  0.33231985    -0.03000
C30         C  0.22127196  0.17956908  0.15597045    -0.03000
C31         C  0.15219196  0.28092559  0.23077194     0.79700
N32         N  0.16710927  0.33450902  0.25629238    -0.78600
C33         C  0.20150780  0.33271275  0.26165113     0.82100
N34         N  0.21837586  0.28702869  0.22298027    -0.78600
C35         C  0.20459222  0.22868296  0.20614379     0.82200
N36         N  0.17132664  0.22646566  0.21327637    -0.80300
C37         C  0.22131363  0.42955989  0.33991461    -0.03000
C38         C  0.21629963  0.09958750  0.16356412    -0.03000
C39         C  0.15221208  0.53093134  0.26517193     0.79700
N40         N  0.16709726  0.08455744  0.23961721    -0.78600
C41         C  0.20149284  0.08273995  0.23423838     0.82100
N42         N  0.21839424  0.53703060  0.27289976    -0.78600
C43         C  0.20461975  0.47867819  0.28974878     0.82200
N44         N  0.17135069  0.47646912  0.28265607    -0.80300
O45         O  0.26553117  0.45948735  0.97492404    -0.75000
O46         O  0.35483527  0.47127175  0.00442469    -0.75000
O47         O  0.29525002  0.50110519  0.07847302    -0.75000
O48         O  0.31485731  0.42393266  0.40614719    -0.75100
O49         O  0.30028153  0.01525367  0.35827192    -0.75000
O50         O  0.28679791  0.09737732  0.03133652    -0.75000
O51         O  0.34938583  0.06910892  0.45348717    -0.75000
O52         O  0.25952080  0.05914521  0.42611660    -0.75000
Ni53       Ni  0.30873993  0.45990782  0.99320192     1.25400
Ni54       Ni  0.30166842  0.06646688  0.44046367     1.25400
C55         C  0.25086037  0.51473216  0.46354644     0.87200
C56         C  0.36760731  0.52223819  0.48013737     0.87100
C57         C  0.28132744  0.06077658  0.08267619     0.87200
C58         C  0.29449810  0.45305905  0.36608653     0.87300
O59         O  0.22486399  0.48944435  0.05032243    -0.75000
O60         O  0.13987257  0.42686590  0.03629660    -0.75000
O61         O  0.20210558  0.42304449  0.45818675    -0.75000
O62         O  0.18215873  0.50153928  0.12658560    -0.75100
O63         O  0.16709033  0.09313381  0.07739862    -0.75000
O64         O  0.17819009  0.00618545  0.40533047    -0.75000
O65         O  0.12358378  0.02509969  0.49372837    -0.75000
O66         O  0.20779006  0.07399701  0.48462600    -0.75000
Ni67       Ni  0.18600417  0.45412398  0.04485002     1.25400
Ni68       Ni  0.16692378  0.05321733  0.48892707     1.25400
C69         C  0.22844406  0.03172981  0.50584680     0.87200
C70         C  0.11679201  0.46788616  0.51376959     0.87100
C71         C  0.19974679  0.45472902  0.40455718     0.87200
C72         C  0.18714639  0.06396738  0.11964055     0.87300
C73         C  0.26455298  0.41480000  0.32796306    -0.03000
C74         C  0.26001668  0.08505330  0.15116387    -0.03000
C75         C  0.32815375  0.47382920  0.22470673     0.79700
N76         N  0.31170005  0.42126137  0.24778784    -0.78600
C77         C  0.27766802  0.42715553  0.25503479     0.82100
N78         N  0.26177652  0.47559332  0.21753940    -0.78600
C79         C  0.27695385  0.03199433  0.19917059     0.82200
N80         N  0.31065829  0.03012918  0.20519556    -0.80300
C81         C  0.26004150  0.33503724  0.34473973    -0.03000
C82         C  0.26451949  0.16481028  0.16793851    -0.03000
C83         C  0.32814471  0.22358345  0.27133164     0.79700
N84         N  0.31068694  0.28004147  0.29076771    -0.78600
C85         C  0.27697891  0.28195459  0.29676045     0.82100
N86         N  0.26175550  0.22557236  0.27834661    -0.78600
C87         C  0.27762651  0.17710317  0.24087549     0.82200
N88         N  0.31165600  0.17110094  0.24816765    -0.80300
O89         O  0.00777566  0.25387680  0.19443788    -0.75000
O90         O  0.09345988  0.31249200  0.20927088    -0.75000
O91         O  0.05041706  0.23946325  0.11846661    -0.75000
O92         O  0.03138390  0.31759303  0.28744902    -0.75100
O93         O  0.05396922  0.23304481  0.33972364    -0.75000
O94         O  0.06573757  0.14786498  0.16725324    -0.75000
O95         O  0.10901788  0.21428519  0.25257410    -0.75000
O96         O  0.02436981  0.16757766  0.25822994    -0.75000
Ni97       Ni  0.04712173  0.28698219  0.20036841     1.25400
Ni98       Ni  0.06543207  0.18708103  0.25576605     1.25400
C99         C  0.00397000  0.21068584  0.23805133     0.87200
C100        C  0.11619629  0.27123438  0.23253038     0.87100
C101        C  0.04546018  0.17700428  0.12551511     0.87200
C102        C  0.03309270  0.28536030  0.34079941     0.87300
O103        O  0.46509061  0.29724720  0.26313185    -0.75000
O104        O  0.37621515  0.27680748  0.24195710    -0.75000
O105        O  0.41744053  0.32692813  0.33755769    -0.75000
O106        O  0.43505781  0.25019945  0.16362745    -0.75100
O107        O  0.44580903  0.15585619  0.21243198    -0.75000
O108        O  0.43272836  0.23563634  0.38496447    -0.75000
O109        O  0.38379674  0.17919975  0.29264535    -0.75000
O110        O  0.47355545  0.19920843  0.31373450    -0.75000
Ni111      Ni  0.42204710  0.29178238  0.24946251     1.25400
Ni112      Ni  0.43161080  0.18624214  0.30271986     1.25400
C113        C  0.48097130  0.24400827  0.27507702     0.87200
C114        C  0.36453035  0.22526944  0.26723856     0.87100
C115        C  0.43827562  0.29777476  0.37709859     0.87200
C116        C  0.45027834  0.19144215  0.16055859     0.87300
C117        C  0.46783374  0.33563270  0.41662507    -0.03000
C118        C  0.47216448  0.16576729  0.09359027    -0.03000
C119        C  0.40398839  0.27345557  0.51741752     0.79700
N120        N  0.42016206  0.32678223  0.49536430    -0.78600
C121        C  0.45423262  0.32201928  0.48892809     0.82100
N122        N  0.47021136  0.27415982  0.52676794    -0.78600
C123        C  0.45536036  0.21709539  0.04426935     0.82200
N124        N  0.42174272  0.21752658  0.03706668    -0.80300
C125        C  0.47216722  0.41575512  0.40216622    -0.03000
C126        C  0.46783011  0.08564460  0.07916286    -0.03000
C127        C  0.40399875  0.52341381  0.47835408     0.79700
N128        N  0.42174985  0.46748478  0.45870399    -0.78600
C129        C  0.45536604  0.46706609  0.45148202     0.82100
N130        N  0.47021593  0.52414035  0.46894795    -0.78600
C131        C  0.45422712  0.07201436  0.00686409     0.82200
N132        N  0.42015827  0.07677513  0.00043087    -0.80300
O133        O  0.00778881  0.00367306  0.30117792    -0.75000
O134        O  0.09343263  0.06252427  0.28656380    -0.75000
O135        O  0.03139062  0.06757403  0.20828424    -0.75000
O136        O  0.05041959  0.98941946  0.37724399    -0.75100
O137        O  0.06575274  0.39779167  0.32844480    -0.75000
O138        O  0.05404987  0.48310345  0.15599001    -0.75000
O139        O  0.10906280  0.46428524  0.24325691    -0.75000
O140        O  0.02442535  0.41752334  0.23728578    -0.75000
Ni141      Ni  0.04710930  0.03691448  0.29535282     1.25400
Ni142      Ni  0.06548645  0.43705585  0.23992520     1.25400
C143        C  0.00401431  0.46056823  0.25756123     0.87200
C144        C  0.11622363  0.52122449  0.26335437     0.87100
C145        C  0.03311928  0.03538713  0.15491452     0.87200
C146        C  0.04548935  0.42692905  0.37020888     0.87300
O147        O  0.46509699  0.04718270  0.23266911    -0.75000
O148        O  0.37621409  0.02692969  0.25391217    -0.75000
O149        O  0.43506491  0.00023583  0.33218411    -0.75000
O150        O  0.41743952  0.07698453  0.15826493    -0.75100
O151        O  0.43269920  0.48566235  0.11077619    -0.75000
O152        O  0.44573408  0.40589144  0.28336217    -0.75000
O153        O  0.38375063  0.42944760  0.20320515    -0.75000
O154        O  0.47351937  0.44898357  0.18195251    -0.75000
Ni155      Ni  0.42205201  0.04182553  0.24636216     1.25400
Ni156      Ni  0.43155668  0.43628039  0.19304928     1.25400
C157        C  0.48099350  0.49380144  0.22051957     0.87200
C158        C  0.36453522  0.47553396  0.22868763     0.87100
C159        C  0.45029411  0.44148973  0.33519170     0.87200
C160        C  0.43826313  0.04781661  0.11871611     0.87300
C161        C  0.01160313  0.31076839  0.40560774    -0.03000
C162        C  0.01642808  0.14091048  0.08201046    -0.03000
C163        C  0.08073430  0.20803199  0.97948024     0.79700
N164        N  0.06171236  0.26274081  0.46200043    -0.78600
C165        C  0.02837042  0.26120741  0.45550084     0.82100
N166        N  0.01444733  0.20308953  0.47255579    -0.78600
C167        C  0.03124310  0.15726729  0.01122704     0.82200
N168        N  0.06565378  0.15495623  0.00569306    -0.80300
C169        C  0.01645257  0.39087874  0.41373507    -0.03000
C170        C  0.01160170  0.06078729  0.09012693    -0.03000
C171        C  0.08076944  0.45806775  0.51620475     0.79700
N172        N  0.06569051  0.40496787  0.49003754    -0.78600
C173        C  0.03127903  0.40725811  0.48451750     0.82100
N174        N  0.01448629  0.45308533  0.52318795    -0.78600
C175        C  0.02836656  0.01123460  0.04021109     0.82200
N176        N  0.06170184  0.01282506  0.03364600    -0.80300
O177        O  0.26550784  0.20949276  0.02105481    -0.75000
O178        O  0.35481540  0.22126977  0.99151734    -0.75000
O179        O  0.31485397  0.17394378  0.58983420    -0.75000
O180        O  0.29522571  0.25106356  0.91749297    -0.75100
O181        O  0.28678731  0.34735958  0.96460406    -0.75000
O182        O  0.30030722  0.26523426  0.63768561    -0.75000
O183        O  0.34939646  0.31910650  0.54239470    -0.75000
O184        O  0.25953426  0.30919753  0.56989722    -0.75000
Ni185      Ni  0.30872162  0.20989982  0.00277155     1.25400
Ni186      Ni  0.30168192  0.31647321  0.55548608     1.25400
C187        C  0.25083309  0.26473291  0.53246023     0.87200
C188        C  0.36759133  0.27227129  0.01571672     0.87100
C189        C  0.29449001  0.20307159  0.62987201     0.87200
C190        C  0.28131798  0.31075502  0.91326867     0.87300
O191        O  0.22482962  0.23947435  0.94568590    -0.75000
O192        O  0.13984342  0.17684802  0.95946937    -0.75000
O193        O  0.18216733  0.25154959  0.86929929    -0.75000
O194        O  0.20204066  0.17306806  0.53771430    -0.75100
O195        O  0.17811784  0.25606392  0.59055068    -0.75000
O196        O  0.16713523  0.34313388  0.91849046    -0.75000
O197        O  0.12356960  0.27499956  0.50195294    -0.75000
O198        O  0.20774887  0.32400319  0.51144891    -0.75000
Ni199      Ni  0.18597273  0.20413761  0.95103664     1.25400
Ni200      Ni  0.16689614  0.30315846  0.50694769     1.25400
C201        C  0.22842820  0.28179270  0.49020633     0.87200
C202        C  0.11675199  0.21786676  0.48193970     0.87100
C203        C  0.18719126  0.31396832  0.87625345     0.87200
C204        C  0.19967025  0.20472962  0.59134457     0.87300
C205        C  0.21633023  0.34958209  0.83231986    -0.03000
C206        C  0.22127203  0.17956900  0.65597064    -0.03000
C207        C  0.15219180  0.28092463  0.73077160     0.79700
N208        N  0.16710948  0.33450953  0.75629257    -0.78600
C209        C  0.20150769  0.33271242  0.76165058     0.82100
N210        N  0.21837597  0.28702912  0.72298035    -0.78600
C211        C  0.20459192  0.22868231  0.70614350     0.82200
N212        N  0.17132674  0.22646611  0.71327660    -0.80300
C213        C  0.22131365  0.42955985  0.83991475    -0.03000
C214        C  0.21629952  0.09958748  0.66356415    -0.03000
C215        C  0.15221204  0.53093190  0.76517156     0.79700
N216        N  0.16709702  0.08455751  0.73961707    -0.78600
C217        C  0.20149339  0.08273948  0.73423891     0.82100
N218        N  0.21839433  0.53703054  0.77289995    -0.78600
C219        C  0.20461950  0.47867824  0.78974875     0.82200
N220        N  0.17135081  0.47646893  0.78265612    -0.80300
O221        O  0.26553120  0.45948749  0.47492409    -0.75000
O222        O  0.35483535  0.47127166  0.50442472    -0.75000
O223        O  0.29525007  0.50110509  0.57847304    -0.75000
O224        O  0.31485722  0.42393271  0.90614712    -0.75100
O225        O  0.30028147  0.01525382  0.85827213    -0.75000
O226        O  0.28679802  0.09737746  0.53133645    -0.75000
O227        O  0.34938569  0.06910911  0.95348736    -0.75000
O228        O  0.25952082  0.05914502  0.92611682    -0.75000
Ni229      Ni  0.30873998  0.45990779  0.49320196     1.25400
Ni230      Ni  0.30166838  0.06646696  0.94046381     1.25400
C231        C  0.25086017  0.51473291  0.96354608     0.87200
C232        C  0.36760720  0.52223803  0.98013737     0.87100
C233        C  0.28132743  0.06077702  0.58267604     0.87200
C234        C  0.29449805  0.45305907  0.86608663     0.87300
O235        O  0.22486406  0.48944426  0.55032262    -0.75000
O236        O  0.13987264  0.42686597  0.53629659    -0.75000
O237        O  0.20210557  0.42304462  0.95818688    -0.75000
O238        O  0.18215877  0.50153919  0.62658569    -0.75100
O239        O  0.16709030  0.09313366  0.57739877    -0.75000
O240        O  0.17819011  0.00618564  0.90533040    -0.75000
O241        O  0.12358381  0.02509990  0.99372812    -0.75000
O242        O  0.20779024  0.07399709  0.98462620    -0.75000
Ni243      Ni  0.18600424  0.45412390  0.54485007     1.25400
Ni244      Ni  0.16692391  0.05321746  0.98892698     1.25400
C245        C  0.22844423  0.03172930  0.00584736     0.87200
C246        C  0.11679169  0.46788607  0.01376950     0.87100
C247        C  0.19974660  0.45472941  0.90455701     0.87200
C248        C  0.18714655  0.06396709  0.61964078     0.87300
C249        C  0.26455287  0.41479998  0.82796302    -0.03000
C250        C  0.26001686  0.08505336  0.65116394    -0.03000
C251        C  0.32815375  0.47382888  0.72470681     0.79700
N252        N  0.31170003  0.42126150  0.74778789    -0.78600
C253        C  0.27766808  0.42715541  0.75503501     0.82100
N254        N  0.26177656  0.47559352  0.71753928    -0.78600
C255        C  0.27695360  0.03199427  0.69917035     0.82200
N256        N  0.31065850  0.03012931  0.70519553    -0.80300
C257        C  0.26004150  0.33503729  0.84473981    -0.03000
C258        C  0.26451940  0.16481038  0.66793859    -0.03000
C259        C  0.32814475  0.22358301  0.77133136     0.79700
N260        N  0.31068701  0.28004152  0.79076779    -0.78600
C261        C  0.27697891  0.28195439  0.79676043     0.82100
N262        N  0.26175556  0.22557243  0.77834667    -0.78600
C263        C  0.27762651  0.17710313  0.74087544     0.82200
N264        N  0.31165612  0.17110095  0.74816778    -0.80300
O265        O  0.00777575  0.25387671  0.69443813    -0.75000
O266        O  0.09346002  0.31249194  0.70927067    -0.75000
O267        O  0.05041709  0.23946313  0.61846638    -0.75000
O268        O  0.03138391  0.31759288  0.78744902    -0.75100
O269        O  0.05396930  0.23304476  0.83972368    -0.75000
O270        O  0.06573762  0.14786500  0.66725309    -0.75000
O271        O  0.10901790  0.21428510  0.75257400    -0.75000
O272        O  0.02436994  0.16757747  0.75823014    -0.75000
Ni273      Ni  0.04712181  0.28698220  0.70036824     1.25400
Ni274      Ni  0.06543216  0.18708109  0.75576597     1.25400
C275        C  0.00396997  0.21068608  0.73805108     0.87200
C276        C  0.11619644  0.27123547  0.73253016     0.87100
C277        C  0.04546019  0.17700424  0.62551510     0.87200
C278        C  0.03309272  0.28536031  0.84079922     0.87300
O279        O  0.46509067  0.29724699  0.76313212    -0.75000
O280        O  0.37621532  0.27680739  0.74195738    -0.75000
O281        O  0.41744058  0.32692810  0.83755781    -0.75000
O282        O  0.43505785  0.25019929  0.66362768    -0.75100
O283        O  0.44580906  0.15585597  0.71243206    -0.75000
O284        O  0.43272842  0.23563636  0.88496477    -0.75000
O285        O  0.38379681  0.17919965  0.79264576    -0.75000
O286        O  0.47355554  0.19920845  0.81373496    -0.75000
Ni287      Ni  0.42204720  0.29178240  0.74946265     1.25400
Ni288      Ni  0.43161084  0.18624206  0.80272005     1.25400
C289        C  0.48097133  0.24400812  0.77507714     0.87200
C290        C  0.36453051  0.22526982  0.76723870     0.87100
C291        C  0.43827567  0.29777481  0.87709877     0.87200
C292        C  0.45027836  0.19144171  0.66055887     0.87300
C293        C  0.46783366  0.33563292  0.91662515    -0.03000
C294        C  0.47216457  0.16576735  0.59359028    -0.03000
C295        C  0.40398877  0.27345619  0.01741740     0.79700
N296        N  0.42016182  0.32678215  0.99536443    -0.78600
C297        C  0.45423289  0.32201947  0.98892799     0.82100
N298        N  0.47021126  0.27415987  0.02676797    -0.78600
C299        C  0.45536000  0.21709491  0.54426956     0.82200
N300        N  0.42174292  0.21752658  0.53706672    -0.80300
C301        C  0.47216726  0.41575535  0.90216634    -0.03000
C302        C  0.46783000  0.08564441  0.57916304    -0.03000
C303        C  0.40399874  0.52341391  0.97835414     0.79700
N304        N  0.42174984  0.46748473  0.95870396    -0.78600
C305        C  0.45536604  0.46706603  0.95148199     0.82100
N306        N  0.47021594  0.52414038  0.96894810    -0.78600
C307        C  0.45422740  0.07201401  0.50686416     0.82200
N308        N  0.42015805  0.07677491  0.50043085    -0.80300
O309        O  0.00778894  0.00367295  0.80117743    -0.75000
O310        O  0.09343273  0.06252407  0.78656347    -0.75000
O311        O  0.03139069  0.06757397  0.70828414    -0.75000
O312        O  0.05041970  0.98941933  0.87724388    -0.75100
O313        O  0.06575273  0.39779175  0.82844503    -0.75000
O314        O  0.05404977  0.48310346  0.65599002    -0.75000
O315        O  0.10906273  0.46428542  0.74325723    -0.75000
O316        O  0.02442524  0.41752326  0.73728589    -0.75000
Ni317      Ni  0.04710939  0.03691441  0.79535265     1.25400
Ni318      Ni  0.06548638  0.43705584  0.73992527     1.25400
C319        C  0.00401411  0.46056869  0.75756171     0.87200
C320        C  0.11622368  0.52122433  0.76335430     0.87100
C321        C  0.03311923  0.03538716  0.65491463     0.87200
C322        C  0.04548930  0.42692921  0.87020896     0.87300
O323        O  0.46509687  0.04718271  0.73266910    -0.75000
O324        O  0.37621397  0.02692969  0.75391187    -0.75000
O325        O  0.43506483  0.00023576  0.83218415    -0.75000
O326        O  0.41743950  0.07698438  0.65826506    -0.75100
O327        O  0.43269915  0.48566245  0.61077620    -0.75000
O328        O  0.44573419  0.40589142  0.78336225    -0.75000
O329        O  0.38375066  0.42944771  0.70320506    -0.75000
O330        O  0.47351953  0.44898405  0.68195251    -0.75000
Ni331      Ni  0.42205198  0.04182546  0.74636217     1.25400
Ni332      Ni  0.43155681  0.43628054  0.69304930     1.25400
C333        C  0.48099355  0.49380135  0.72051961     0.87200
C334        C  0.36453518  0.47553410  0.72868788     0.87100
C335        C  0.45029411  0.44148957  0.83519169     0.87200
C336        C  0.43826317  0.04781649  0.61871621     0.87300
C337        C  0.01160320  0.31076829  0.90560787    -0.03000
C338        C  0.01642803  0.14091036  0.58201032    -0.03000
C339        C  0.08073418  0.20803117  0.47948049     0.79700
N340        N  0.06171237  0.26274038  0.96200052    -0.78600
C341        C  0.02837059  0.26120802  0.95550057     0.82100
N342        N  0.01444737  0.20308916  0.97255583    -0.78600
C343        C  0.03124310  0.15726681  0.51122740     0.82200
N344        N  0.06565379  0.15495646  0.50569271    -0.80300
C345        C  0.01645250  0.39087887  0.91373512    -0.03000
C346        C  0.01160168  0.06078709  0.59012691    -0.03000
C347        C  0.08076988  0.45806781  0.01620482     0.79700
N348        N  0.06569026  0.40496774  0.99003760    -0.78600
C349        C  0.03127938  0.40725811  0.98451756     0.82100
N350        N  0.01448609  0.45308527  0.02318786    -0.78600
C351        C  0.02836642  0.01123474  0.54021106     0.82200
N352        N  0.06170195  0.01282473  0.53364588    -0.80300
O353        O  0.26548368  0.70948983  0.52109511    -0.75000
O354        O  0.35478269  0.72128464  0.49147110    -0.75000
O355        O  0.31484811  0.67399464  0.08983813    -0.75000
O356        O  0.29518503  0.75106038  0.41748874    -0.75100
O357        O  0.28678837  0.84736872  0.46459209    -0.75000
O358        O  0.30029431  0.76527996  0.13769105    -0.75000
O359        O  0.34938319  0.81909648  0.04240040    -0.75000
O360        O  0.25951457  0.80921566  0.06989154    -0.75000
Ni361      Ni  0.30869355  0.70991303  0.50276883     1.25400
Ni362      Ni  0.30166642  0.81648805  0.05548242     1.25400
C363        C  0.25081929  0.76474556  0.03244808     0.87200
C364        C  0.36756895  0.77226517  0.51569142     0.87100
C365        C  0.29448413  0.70311684  0.12987736     0.87200
C366        C  0.28130328  0.81077101  0.41325958     0.87300
O367        O  0.22483891  0.73947522  0.44564190    -0.75000
O368        O  0.13984931  0.67689295  0.45949644    -0.75000
O369        O  0.18216356  0.75155252  0.36928449    -0.75000
O370        O  0.20203907  0.67309293  0.03771662    -0.75100
O371        O  0.17814874  0.75613852  0.09053689    -0.75000
O372        O  0.16711167  0.84313626  0.41845104    -0.75000
O373        O  0.12358277  0.77504912  0.00198506    -0.75000
O374        O  0.20776453  0.82404718  0.01134643    -0.75000
Ni375      Ni  0.18597738  0.70415719  0.45103138     1.25400
Ni376      Ni  0.16690920  0.80320239  0.00691943     1.25400
C377        C  0.22843615  0.78180900  0.99015079     0.87200
C378        C  0.11676259  0.71792053  0.98196980     0.87100
C379        C  0.18717549  0.81397634  0.37622968     0.87200
C380        C  0.19967802  0.70476631  0.09134227     0.87300
C381        C  0.21631062  0.84960827  0.33231270    -0.03000
C382        C  0.22127402  0.67959500  0.15597359    -0.03000
C383        C  0.15218925  0.78095804  0.23075177     0.79700
N384        N  0.16710293  0.83454870  0.25626565    -0.78600
C385        C  0.20149944  0.83274934  0.26163544     0.82100
N386        N  0.21837060  0.78706315  0.22297294    -0.78600
C387        C  0.20459036  0.72871050  0.20614244     0.82200
N388        N  0.17132425  0.72649624  0.21326502    -0.80300
C389        C  0.22127864  0.92959288  0.33991778    -0.03000
C390        C  0.21631320  0.59960321  0.16356627    -0.03000
C391        C  0.15218050  0.03099380  0.26517459     0.79700
N392        N  0.16711937  0.58451164  0.23962343    -0.78600
C393        C  0.20151400  0.58271885  0.23424301     0.82100
N394        N  0.21836661  0.03705407  0.27290348    -0.78600
C395        C  0.20458552  0.97871002  0.28974596     0.82200
N396        N  0.17131471  0.97651822  0.28265428    -0.80300
O397        O  0.26551995  0.95945125  0.97497773    -0.75000
O398        O  0.35482475  0.97128518  0.00440095    -0.75000
O399        O  0.29524948  0.00109146  0.07847890    -0.75000
O400        O  0.31483747  0.92395951  0.40613345    -0.75100
O401        O  0.30030826  0.51522248  0.35826520    -0.75000
O402        O  0.28682930  0.59739397  0.03132212    -0.75000
O403        O  0.34940901  0.56907181  0.45346313    -0.75000
O404        O  0.25954499  0.55919243  0.42607986    -0.75000
Ni405      Ni  0.30873170  0.95990459  0.99320380     1.25400
Ni406      Ni  0.30169526  0.56646472  0.44044176     1.25400
C407        C  0.25084028  0.01468078  0.46358581     0.87200
C408        C  0.36759038  0.02227098  0.48014772     0.87100
C409        C  0.28134453  0.56080229  0.08266789     0.87200
C410        C  0.29447133  0.95309071  0.36608927     0.87300
O411        O  0.22482123  0.98938525  0.05033251    -0.75000
O412        O  0.13981606  0.92693761  0.03626307    -0.75000
O413        O  0.20203590  0.92309186  0.45816594    -0.75000
O414        O  0.18211709  0.00154789  0.12658447    -0.75100
O415        O  0.16711389  0.59311363  0.07738984    -0.75000
O416        O  0.17822577  0.50611162  0.40534759    -0.75000
O417        O  0.12362192  0.52501054  0.49375004    -0.75000
O418        O  0.20780606  0.57402676  0.48460290    -0.75000
Ni419      Ni  0.18594643  0.95414488  0.04483719     1.25400
Ni420      Ni  0.16695191  0.55317152  0.48892745     1.25400
C421        C  0.22847169  0.53178350  0.50582302     0.87200
C422        C  0.11674716  0.96797075  0.51372984     0.87100
C423        C  0.19969826  0.95478290  0.40454298     0.87200
C424        C  0.18717151  0.56396518  0.11963984     0.87300
C425        C  0.26452074  0.91483014  0.32798212    -0.03000
C426        C  0.26002859  0.58508599  0.15115862    -0.03000
C427        C  0.32813046  0.97369214  0.22463895     0.79700
N428        N  0.31165917  0.92118317  0.24779120    -0.78600
C429        C  0.27763010  0.92714209  0.25505945     0.82100
N430        N  0.26174639  0.97558764  0.21756771    -0.78600
C431        C  0.27696645  0.53204052  0.19917722     0.82200
N432        N  0.31066706  0.53023898  0.20525138    -0.80300
C433        C  0.26002247  0.83506838  0.34474303    -0.03000
C434        C  0.26451945  0.66484753  0.16793901    -0.03000
C435        C  0.32813882  0.72364920  0.27128904     0.79700
N436        N  0.31067906  0.78010136  0.29074806    -0.78600
C437        C  0.27696973  0.78200020  0.29675483     0.82100
N438        N  0.26175054  0.72561404  0.27834341    -0.78600
C439        C  0.27762312  0.67714556  0.24087453     0.82200
N440        N  0.31165112  0.67115518  0.24815928    -0.80300
O441        O  0.00779398  0.75384599  0.19442457    -0.75000
O442        O  0.09346135  0.81250965  0.20926325    -0.75000
O443        O  0.05044596  0.73945625  0.11846968    -0.75000
O444        O  0.03139183  0.81759499  0.28743955    -0.75100
O445        O  0.05397614  0.73306255  0.33973915    -0.75000
O446        O  0.06575577  0.64786602  0.16728010    -0.75000
O447        O  0.10902387  0.71431895  0.25260142    -0.75000
O448        O  0.02437595  0.66757478  0.25826207    -0.75000
Ni449      Ni  0.04713288  0.78697418  0.20036408     1.25400
Ni450      Ni  0.06544212  0.68708990  0.25579376     1.25400
C451        C  0.00398107  0.71068495  0.23806096     0.87200
C452        C  0.11619793  0.77126408  0.23253218     0.87100
C453        C  0.04548658  0.67700041  0.12552340     0.87200
C454        C  0.03309844  0.78537464  0.34079691     0.87300
O455        O  0.46508588  0.79721652  0.26307685    -0.75000
O456        O  0.37621354  0.77683575  0.24183188    -0.75000
O457        O  0.41743298  0.82693496  0.33745754    -0.75000
O458        O  0.43506783  0.75017990  0.16354199    -0.75100
O459        O  0.44580752  0.65583264  0.21235868    -0.75000
O460        O  0.43271233  0.73564956  0.38487956    -0.75000
O461        O  0.38378476  0.67924071  0.29254781    -0.75000
O462        O  0.47354114  0.69917555  0.31368618    -0.75000
Ni463      Ni  0.42204803  0.79177760  0.24936463     1.25400
Ni464      Ni  0.43159761  0.68624197  0.30263904     1.25400
C465        C  0.48096426  0.74397644  0.27503938     0.87200
C466        C  0.36452276  0.72532196  0.26714982     0.87100
C467        C  0.43826218  0.79778772  0.37702112     0.87200
C468        C  0.45028240  0.69141709  0.16048015     0.87300
C469        C  0.46781937  0.83564077  0.41658540    -0.03000
C470        C  0.47216192  0.66574101  0.09350490    -0.03000
C471        C  0.40396863  0.77342746  0.51736795     0.79700
N472        N  0.42014247  0.82674604  0.49529855    -0.78600
C473        C  0.45421338  0.82198210  0.48886068     0.82100
N474        N  0.47019452  0.77410633  0.52666651    -0.78600
C475        C  0.45534474  0.71705094  0.04418236     0.82200
N476        N  0.42172309  0.71749322  0.03700942    -0.80300
C477        C  0.47215477  0.91577178  0.40219752    -0.03000
C478        C  0.46783749  0.58562170  0.07907284    -0.03000
C479        C  0.40398381  0.02344874  0.47839237     0.79700
N480        N  0.42173410  0.96751732  0.45873924    -0.78600
C481        C  0.45535158  0.96708644  0.45153072     0.82100
N482        N  0.47020262  0.02415253  0.46903075    -0.78600
C483        C  0.45424119  0.57200721  0.00676945     0.82200
N484        N  0.42017246  0.57676356  0.00033637    -0.80300
O485        O  0.00782138  0.50368878  0.30123733    -0.75000
O486        O  0.09347445  0.56246084  0.28658346    -0.75000
O487        O  0.03142696  0.56756494  0.20831910    -0.75000
O488        O  0.05045852  0.48937361  0.37727337    -0.75100
O489        O  0.06573715  0.89783925  0.32843237    -0.75000
O490        O  0.05403024  0.98312167  0.15596341    -0.75000
O491        O  0.10903591  0.96435314  0.24324753    -0.75000
O492        O  0.02441864  0.91750530  0.23725318    -0.75000
Ni493      Ni  0.04714943  0.53688714  0.29538866     1.25400
Ni494      Ni  0.06546984  0.93708799  0.23990649     1.25400
C495        C  0.00399760  0.96053725  0.25750490     0.87200
C496        C  0.11618969  0.02129395  0.26334436     0.87100
C497        C  0.03314561  0.53537966  0.15494388     0.87200
C498        C  0.04546577  0.92696839  0.37018675     0.87300
O499        O  0.46516566  0.54712439  0.23239713    -0.75000
O500        O  0.37626810  0.52704957  0.25393071    -0.75000
O501        O  0.43516328  0.50032586  0.33209519    -0.75000
O502        O  0.41744944  0.57697258  0.15815510    -0.75100
O503        O  0.43269414  0.98568840  0.11085945    -0.75000
O504        O  0.44578114  0.90588597  0.28338341    -0.75000
O505        O  0.38375894  0.92931685  0.20323265    -0.75000
O506        O  0.47351948  0.94914164  0.18206340    -0.75000
Ni507      Ni  0.42211666  0.54187054  0.24625622     1.25400
Ni508      Ni  0.43156975  0.93628267  0.19310730     1.25400
C509        C  0.48096744  0.99393841  0.22068650     0.87200
C510        C  0.36451240  0.97539150  0.22866798     0.87100
C511        C  0.45027444  0.94147088  0.33524163     0.87200
C512        C  0.43826680  0.54779411  0.11860874     0.87300
C513        C  0.01160034  0.81078384  0.40558963    -0.03000
C514        C  0.01645558  0.64091362  0.08200824    -0.03000
C515        C  0.08074779  0.70808395  0.97950863     0.79700
N516        N  0.06171826  0.76278521  0.46201940    -0.78600
C517        C  0.02837728  0.76122660  0.45549834     0.82100
N518        N  0.01446754  0.70308776  0.47254481    -0.78600
C519        C  0.03126838  0.65727443  0.01122386     0.82200
N520        N  0.06567739  0.65498938  0.00569744    -0.80300
C521        C  0.01643684  0.89090112  0.41371089    -0.03000
C522        C  0.01162982  0.56078742  0.09014450    -0.03000
C523        C  0.08073358  0.95813860  0.51614897     0.79700
N524        N  0.06566678  0.90501595  0.49000700    -0.78600
C525        C  0.03125718  0.90727861  0.48449569     0.82100
N526        N  0.01445906  0.95308542  0.52318074    -0.78600
C527        C  0.02840233  0.51122022  0.04023240     0.82200
N528        N  0.06174331  0.51277262  0.03369429    -0.80300
O529        O  0.26548355  0.70949028  0.02109556    -0.75000
O530        O  0.35478262  0.72128465  0.99147111    -0.75000
O531        O  0.31484819  0.67399458  0.58983810    -0.75000
O532        O  0.29518490  0.75106019  0.91748885    -0.75100
O533        O  0.28678840  0.84736868  0.96459197    -0.75000
O534        O  0.30029422  0.76527984  0.63769112    -0.75000
O535        O  0.34938302  0.81909646  0.54240042    -0.75000
O536        O  0.25951436  0.80921517  0.56989123    -0.75000
Ni537      Ni  0.30869347  0.70991300  0.00276894     1.25400
Ni538      Ni  0.30166630  0.81648808  0.55548256     1.25400
C539        C  0.25081913  0.76474693  0.53244848     0.87200
C540        C  0.36756895  0.77226497  0.01569141     0.87100
C541        C  0.29448412  0.70311671  0.62987737     0.87200
C542        C  0.28130326  0.81077148  0.91325988     0.87300
O543        O  0.22483903  0.73947513  0.94564195    -0.75000
O544        O  0.13984942  0.67689293  0.95949665    -0.75000
O545        O  0.18216364  0.75155257  0.86928462    -0.75000
O546        O  0.20203896  0.67309294  0.53771645    -0.75100
O547        O  0.17814855  0.75613836  0.59053679    -0.75000
O548        O  0.16711174  0.84313629  0.91845103    -0.75000
O549        O  0.12358288  0.77504918  0.50198519    -0.75000
O550        O  0.20776432  0.82404724  0.51134640    -0.75000
Ni551      Ni  0.18597750  0.70415728  0.95103165     1.25400
Ni552      Ni  0.16690916  0.80320227  0.50691942     1.25400
C553        C  0.22843625  0.78180723  0.49014966     0.87200
C554        C  0.11676257  0.71791892  0.48196939     0.87100
C555        C  0.18717566  0.81397625  0.87622960     0.87200
C556        C  0.19967800  0.70476608  0.59134189     0.87300
C557        C  0.21631058  0.84960848  0.83231287    -0.03000
C558        C  0.22127401  0.67959521  0.65597360    -0.03000
C559        C  0.15218953  0.78095725  0.73075147     0.79700
N560        N  0.16710280  0.83454898  0.75626578    -0.78600
C561        C  0.20149971  0.83274889  0.76163488     0.82100
N562        N  0.21837046  0.78706359  0.72297314    -0.78600
C563        C  0.20459049  0.72870987  0.70614203     0.82200
N564        N  0.17132412  0.72649657  0.71326513    -0.80300
C565        C  0.22127858  0.92959309  0.83991758    -0.03000
C566        C  0.21631324  0.59960318  0.66356613    -0.03000
C567        C  0.15218102  0.03099322  0.76517463     0.79700
N568        N  0.16711941  0.58451159  0.73962350    -0.78600
C569        C  0.20151409  0.58271886  0.73424308     0.82100
N570        N  0.21836642  0.03705448  0.77290342    -0.78600
C571        C  0.20458596  0.97870965  0.78974624     0.82200
N572        N  0.17131446  0.97651847  0.78265403    -0.80300
O573        O  0.26551994  0.95945153  0.47497762    -0.75000
O574        O  0.35482477  0.97128520  0.50440115    -0.75000
O575        O  0.29524940  0.00109165  0.57847893    -0.75000
O576        O  0.31483755  0.92395960  0.90613341    -0.75100
O577        O  0.30030815  0.51522257  0.85826519    -0.75000
O578        O  0.28682934  0.59739393  0.53132227    -0.75000
O579        O  0.34940890  0.56907181  0.95346298    -0.75000
O580        O  0.25954488  0.55919246  0.92608004    -0.75000
Ni581      Ni  0.30873167  0.95990468  0.49320392     1.25400
Ni582      Ni  0.30169518  0.56646480  0.94044170     1.25400
C583        C  0.25084027  0.01468110  0.96358592     0.87200
C584        C  0.36759054  0.02227111  0.98014781     0.87100
C585        C  0.28134455  0.56080259  0.58266781     0.87200
C586        C  0.29447130  0.95309089  0.86608928     0.87300
O587        O  0.22482126  0.98938540  0.55033237    -0.75000
O588        O  0.13981612  0.92693738  0.53626303    -0.75000
O589        O  0.20203582  0.92309200  0.95816582    -0.75000
O590        O  0.18211717  0.00154780  0.62658457    -0.75100
O591        O  0.16711391  0.59311338  0.57738961    -0.75000
O592        O  0.17822571  0.50611159  0.90534762    -0.75000
O593        O  0.12362192  0.52501046  0.99374999    -0.75000
O594        O  0.20780588  0.57402701  0.98460294    -0.75000
Ni595      Ni  0.18594651  0.95414497  0.54483716     1.25400
Ni596      Ni  0.16695185  0.55317157  0.98892758     1.25400
C597        C  0.22847170  0.53178296  0.00582336     0.87200
C598        C  0.11674701  0.96797157  0.01372947     0.87100
C599        C  0.19969833  0.95478291  0.90454317     0.87200
C600        C  0.18717162  0.56396497  0.61963993     0.87300
C601        C  0.26452089  0.91483033  0.82798224    -0.03000
C602        C  0.26002868  0.58508602  0.65115871    -0.03000
C603        C  0.32813005  0.97369166  0.72463910     0.79700
N604        N  0.31165945  0.92118329  0.74779090    -0.78600
C605        C  0.27762970  0.92714228  0.75505932     0.82100
N606        N  0.26174658  0.97558751  0.71756768    -0.78600
C607        C  0.27696641  0.53204035  0.69917728     0.82200
N608        N  0.31066714  0.53023905  0.70525143    -0.80300
C609        C  0.26002253  0.83506831  0.84474287    -0.03000
C610        C  0.26451959  0.66484742  0.66793893    -0.03000
C611        C  0.32813861  0.72364909  0.77128907     0.79700
N612        N  0.31067921  0.78010123  0.79074797    -0.78600
C613        C  0.27696951  0.78200050  0.79675502     0.82100
N614        N  0.26175068  0.72561383  0.77834338    -0.78600
C615        C  0.27762286  0.67714595  0.74087473     0.82200
N616        N  0.31165138  0.67115513  0.74815932    -0.80300
O617        O  0.00779406  0.75384601  0.69442470    -0.75000
O618        O  0.09346153  0.81250966  0.70926336    -0.75000
O619        O  0.05044593  0.73945633  0.61846964    -0.75000
O620        O  0.03139188  0.81759508  0.78743954    -0.75100
O621        O  0.05397618  0.73306276  0.83973903    -0.75000
O622        O  0.06575586  0.64786610  0.66728008    -0.75000
O623        O  0.10902389  0.71431889  0.75260143    -0.75000
O624        O  0.02437595  0.66757483  0.75826220    -0.75000
Ni625      Ni  0.04713299  0.78697417  0.70036414     1.25400
Ni626      Ni  0.06544206  0.68709003  0.75579371     1.25400
C627        C  0.00398091  0.71068607  0.73806049     0.87200
C628        C  0.11619792  0.77126456  0.73253189     0.87100
C629        C  0.04548660  0.67700085  0.62552305     0.87200
C630        C  0.03309846  0.78537492  0.84079682     0.87300
O631        O  0.46508592  0.79721655  0.76307692    -0.75000
O632        O  0.37621356  0.77683564  0.74183202    -0.75000
O633        O  0.41743305  0.82693495  0.83745775    -0.75000
O634        O  0.43506789  0.75017999  0.66354214    -0.75100
O635        O  0.44580758  0.65583271  0.71235869    -0.75000
O636        O  0.43271236  0.73564935  0.88487966    -0.75000
O637        O  0.38378489  0.67924066  0.79254787    -0.75000
O638        O  0.47354124  0.69917552  0.81368621    -0.75000
Ni639      Ni  0.42204807  0.79177765  0.74936479     1.25400
Ni640      Ni  0.43159770  0.68624200  0.80263912     1.25400
C641        C  0.48096433  0.74397662  0.77503952     0.87200
C642        C  0.36452300  0.72532195  0.76714956     0.87100
C643        C  0.43826222  0.79778765  0.87702123     0.87200
C644        C  0.45028255  0.69141695  0.66048043     0.87300
C645        C  0.46781938  0.83564057  0.91658545    -0.03000
C646        C  0.47216199  0.66574122  0.59350484    -0.03000
C647        C  0.40396874  0.77342751  0.01736754     0.79700
N648        N  0.42014243  0.82674598  0.99529864    -0.78600
C649        C  0.45421346  0.82198219  0.98886067     0.82100
N650        N  0.47019453  0.77410617  0.02666643    -0.78600
C651        C  0.45534475  0.71705088  0.54418252     0.82200
N652        N  0.42172308  0.71749339  0.53700943    -0.80300
C653        C  0.47215479  0.91577185  0.90219754    -0.03000
C654        C  0.46783749  0.58562177  0.57907285    -0.03000
C655        C  0.40398340  0.02344900  0.97839242     0.79700
N656        N  0.42173433  0.96751748  0.95873923    -0.78600
C657        C  0.45535128  0.96708651  0.95153061     0.82100
N658        N  0.47020277  0.02415271  0.96903055    -0.78600
C659        C  0.45424109  0.57200737  0.50676950     0.82200
N660        N  0.42017250  0.57676365  0.50033644    -0.80300
O661        O  0.00782128  0.50368890  0.80123729    -0.75000
O662        O  0.09347439  0.56246116  0.78658352    -0.75000
O663        O  0.03142703  0.56756514  0.70831904    -0.75000
O664        O  0.05045847  0.48937374  0.87727333    -0.75100
O665        O  0.06573721  0.89783921  0.82843228    -0.75000
O666        O  0.05403032  0.98312166  0.65596340    -0.75000
O667        O  0.10903600  0.96435295  0.74324746    -0.75000
O668        O  0.02441876  0.91750494  0.73725323    -0.75000
Ni669      Ni  0.04714942  0.53688725  0.79538864     1.25400
Ni670      Ni  0.06546986  0.93708810  0.73990654     1.25400
C671        C  0.00399750  0.96053812  0.75750550     0.87200
C672        C  0.11618951  0.02129408  0.76334434     0.87100
C673        C  0.03314546  0.53538015  0.65494420     0.87200
C674        C  0.04546585  0.92696827  0.87018662     0.87300
O675        O  0.46516552  0.54712457  0.73239756    -0.75000
O676        O  0.37626798  0.52704950  0.75393079    -0.75000
O677        O  0.43516321  0.50032582  0.83209529    -0.75000
O678        O  0.41744939  0.57697264  0.65815523    -0.75100
O679        O  0.43269416  0.98568833  0.61085960    -0.75000
O680        O  0.44578120  0.90588603  0.78338341    -0.75000
O681        O  0.38375884  0.92931680  0.70323265    -0.75000
O682        O  0.47351958  0.94914161  0.68206365    -0.75000
Ni683      Ni  0.42211657  0.54187043  0.74625636     1.25400
Ni684      Ni  0.43156976  0.93628273  0.69310739     1.25400
C685        C  0.48096746  0.99393765  0.72068640     0.87200
C686        C  0.36451247  0.97539229  0.72866816     0.87100
C687        C  0.45027449  0.94147057  0.83524146     0.87200
C688        C  0.43826676  0.54779415  0.61860877     0.87300
C689        C  0.01160048  0.81078392  0.90558950    -0.03000
C690        C  0.01645555  0.64091358  0.58200840    -0.03000
C691        C  0.08074800  0.70808521  0.47950814     0.79700
N692        N  0.06171830  0.76278591  0.96201928    -0.78600
C693        C  0.02837705  0.76122600  0.95549861     0.82100
N694        N  0.01446766  0.70308813  0.97254467    -0.78600
C695        C  0.03126862  0.65727477  0.51122335     0.82200
N696        N  0.06567712  0.65498868  0.50569775    -0.80300
C697        C  0.01643688  0.89090107  0.91371093    -0.03000
C698        C  0.01162999  0.56078757  0.59014435    -0.03000
C699        C  0.08073369  0.95813846  0.01614866     0.79700
N700        N  0.06566675  0.90501625  0.99000707    -0.78600
C701        C  0.03125727  0.90727852  0.98449563     0.82100
N702        N  0.01445899  0.95308545  0.02318074    -0.78600
C703        C  0.02840182  0.51121999  0.54023244     0.82200
N704        N  0.06174368  0.51277253  0.53369427    -0.80300
O705        O  0.76735286  0.19874102  0.51467367    -0.75000
O706        O  0.85634813  0.21659577  0.49064617    -0.75000
O707        O  0.81567776  0.16945389  0.08803722    -0.75000
O708        O  0.79717113  0.24499544  0.41350224    -0.75100
O709        O  0.78814782  0.34008172  0.46203798    -0.75000
O710        O  0.80070993  0.26096114  0.13506739    -0.75000
O711        O  0.84987827  0.31407068  0.04199097    -0.75000
O712        O  0.75986120  0.29782213  0.06355563    -0.75000
Ni713      Ni  0.81044655  0.20328372  0.49949802     1.25400
Ni714      Ni  0.80200334  0.30929000  0.05230936     1.25400
C715        C  0.75214352  0.25299433  0.02513697     0.87200
C716        C  0.86860750  0.26728591  0.51638472     0.87100
C717        C  0.79500435  0.19894918  0.12756957     0.87200
C718        C  0.78294296  0.30473161  0.41027661     0.87300
O719        O  0.72500539  0.22556043  0.43964355    -0.75000
O720        O  0.63717849  0.18381483  0.45959736    -0.75000
O721        O  0.68221913  0.24898105  0.36683544    -0.75000
O722        O  0.69913303  0.17120540  0.03703908    -0.75100
O723        O  0.68233619  0.26062724  0.08871252    -0.75000
O724        O  0.66733204  0.34069467  0.41475943    -0.75000
O725        O  0.62514570  0.28204747  0.00648059    -0.75000
O726        O  0.71217271  0.31770338  0.99749881    -0.75000
Ni727      Ni  0.68415408  0.20138098  0.44897088     1.25400
Ni728      Ni  0.66993283  0.30421186  0.00359675     1.25400
C729        C  0.73048597  0.26946302  0.98125531     0.87200
C730        C  0.61601052  0.22697379  0.98447593     0.87100
C731        C  0.68780833  0.31108787  0.37409463     0.87200
C732        C  0.70033388  0.20455710  0.08998491     0.87300
C733        C  0.71722494  0.34689905  0.33162518    -0.03000
C734        C  0.72198846  0.17722893  0.15483650    -0.03000
C735        C  0.65329548  0.28007675  0.23073604     0.79700
N736        N  0.66853515  0.33380932  0.25475477    -0.78600
C737        C  0.70280143  0.33116949  0.26036993     0.82100
N738        N  0.71938133  0.28493091  0.22180005    -0.78600
C739        C  0.70536321  0.22670099  0.20517187     0.82200
N740        N  0.67199628  0.22517528  0.21247076    -0.80300
C741        C  0.72199378  0.42722811  0.34107524    -0.03000
C742        C  0.71722815  0.09690486  0.16427585    -0.03000
C743        C  0.65329549  0.53022547  0.26528793     0.79700
N744        N  0.66855977  0.08390754  0.24119457    -0.78600
C745        C  0.70282339  0.08120696  0.23554347     0.82100
N746        N  0.71939005  0.53493539  0.27408442    -0.78600
C747        C  0.70536031  0.47672892  0.29074210     0.82200
N748        N  0.67198389  0.47527679  0.28351132    -0.80300
O749        O  0.76737261  0.44873694  0.98138772    -0.75000
O750        O  0.85638505  0.46654112  0.00531359    -0.75000
O751        O  0.79720690  0.49503700  0.08247789    -0.75000
O752        O  0.81567528  0.41936888  0.40799021    -0.75100
O753        O  0.80069125  0.01099480  0.36086201    -0.75000
O754        O  0.78819584  0.09014930  0.03387646    -0.75000
O755        O  0.84989181  0.06413793  0.45381388    -0.75000
O756        O  0.75987450  0.04787254  0.43243786    -0.75000
Ni757      Ni  0.81047204  0.45325750  0.99651450     1.25400
Ni758      Ni  0.80201690  0.05934606  0.44359516     1.25400
C759        C  0.75216793  0.50299011  0.47083968     0.87200
C760        C  0.86864196  0.51721286  0.47952629     0.87100
C761        C  0.78298010  0.05479624  0.08563729     0.87200
C762        C  0.79501571  0.44888193  0.36842901     0.87300
O763        O  0.72498729  0.47566953  0.05629993    -0.75000
O764        O  0.63717220  0.43388660  0.03620811    -0.75000
O765        O  0.69914427  0.42123420  0.45888784    -0.75000
O766        O  0.68217042  0.49907852  0.12904246    -0.75100
O767        O  0.66731220  0.09070013  0.08115695    -0.75000
O768        O  0.68232804  0.01065030  0.40720862    -0.75000
O769        O  0.62513455  0.03206043  0.48941254    -0.75000
O770        O  0.71215975  0.06771322  0.49839747    -0.75000
Ni771      Ni  0.68414084  0.45146869  0.04691575     1.25400
Ni772      Ni  0.66991944  0.05422651  0.49231332     1.25400
C773        C  0.73048632  0.01951077  0.51471012     0.87200
C774        C  0.61601134  0.47704062  0.51129133     0.87100
C775        C  0.70035068  0.45457359  0.40592927     0.87200
C776        C  0.68779000  0.06109657  0.12183130     0.87300
C777        C  0.76522647  0.41161465  0.32914525    -0.03000
C778        C  0.76092800  0.08144684  0.15236725    -0.03000
C779        C  0.82867398  0.47238183  0.22836601     0.79700
N780        N  0.81230625  0.41918471  0.24973586    -0.78600
C781        C  0.77836589  0.42474839  0.25659844     0.82100
N782        N  0.76252448  0.47292418  0.21893730    -0.78600
C783        C  0.77755096  0.02992722  0.20185689     0.82200
N784        N  0.81120254  0.02888181  0.20924073    -0.80300
C785        C  0.76092078  0.33142131  0.34353286    -0.03000
C786        C  0.76521743  0.16163330  0.16679431    -0.03000
C787        C  0.82866366  0.22228089  0.26761288     0.79700
N788        N  0.81120153  0.27885442  0.28667950    -0.78600
C789        C  0.77754816  0.27991201  0.29404750     0.82100
N790        N  0.76251063  0.22290366  0.27699643    -0.78600
C791        C  0.77834346  0.17471223  0.23935565     0.82200
N792        N  0.81228146  0.16910485  0.24624387    -0.80300
O793        O  0.50830129  0.27205213  0.19030405    -0.75000
O794        O  0.59584555  0.31601907  0.20894268    -0.75000
O795        O  0.55070847  0.24946600  0.11703393    -0.75000
O796        O  0.53363654  0.32746091  0.28701726    -0.75100
O797        O  0.55172300  0.23901003  0.33896758    -0.75000
O798        O  0.56582042  0.15792500  0.16513063    -0.75000
O799        O  0.60841580  0.21779176  0.25540953    -0.75000
O800        O  0.52181738  0.18085515  0.24941902    -0.75000
Ni801      Ni  0.54888880  0.29741162  0.19897759     1.25400
Ni802      Ni  0.56383184  0.19507414  0.25387785     1.25400
C803        C  0.50306005  0.22811704  0.23203593     0.87200
C804        C  0.61725860  0.27297615  0.23333808     0.87100
C805        C  0.54521403  0.18728738  0.12445167     0.87200
C806        C  0.53295344  0.29413683  0.34006986     0.87300
O807        O  0.96731280  0.28235283  0.27120797    -0.75000
O808        O  0.87820549  0.27197465  0.24042305    -0.75000
O809        O  0.91787536  0.31655532  0.34014767    -0.75000
O810        O  0.93796201  0.24106299  0.16686884    -0.75100
O811        O  0.94489498  0.14421813  0.21347451    -0.75000
O812        O  0.93279193  0.22515378  0.38724999    -0.75000
O813        O  0.88277982  0.17468454  0.29251321    -0.75000
O814        O  0.97298019  0.18124495  0.31731723    -0.75000
Ni815      Ni  0.92424322  0.28208040  0.25243275     1.25400
Ni816      Ni  0.93064971  0.17517604  0.30445895     1.25400
C817        C  0.98174161  0.22667089  0.28091359     0.87200
C818        C  0.86499732  0.22202356  0.26562017     0.87100
C819        C  0.93840829  0.28737588  0.37985447     0.87200
C820        C  0.95115004  0.18071556  0.16249640     0.87300
C821        C  0.96840796  0.32567172  0.41776154    -0.03000
C822        C  0.97268908  0.15562337  0.09435992    -0.03000
C823        C  0.90495868  0.26765950  0.52048597     0.79700
N824        N  0.92162391  0.32013840  0.49814880    -0.78600
C825        C  0.95556101  0.31360550  0.49074051     0.82100
N826        N  0.97128231  0.26487610  0.52807160    -0.78600
C827        C  0.95590666  0.20854874  0.04605876     0.82200
N828        N  0.92218570  0.21079081  0.03971237    -0.80300
C829        C  0.97271300  0.40562486  0.40140307    -0.03000
C830        C  0.96839998  0.07567232  0.07798081    -0.03000
C831        C  0.90498675  0.51759276  0.47535241     0.79700
N832        N  0.92221689  0.46073764  0.45610860    -0.78600
C833        C  0.95593564  0.45852705  0.44972672     0.82100
N834        N  0.97130438  0.51486810  0.46770225    -0.78600
C835        C  0.95557399  0.06362654  0.00498640     0.82200
N836        N  0.92164273  0.07018285  0.99754750    -0.80300
O837        O  0.50831594  0.02196495  0.30542759    -0.75000
O838        O  0.59583560  0.06615853  0.28697598    -0.75000
O839        O  0.53362294  0.07748705  0.20880328    -0.75000
O840        O  0.55069902  0.99947383  0.37877642    -0.75100
O841        O  0.56581353  0.40794618  0.33061656    -0.75000
O842        O  0.55181331  0.48912955  0.15675910    -0.75000
O843        O  0.60844884  0.46795118  0.24052264    -0.75000
O844        O  0.52189717  0.43075436  0.24607807    -0.75000
Ni845      Ni  0.54888278  0.04744163  0.29684521     1.25400
Ni846      Ni  0.56388967  0.44513437  0.24185686     1.25400
C847        C  0.50309304  0.47790862  0.26354150     0.87200
C848        C  0.61725742  0.52313805  0.26262326     0.87100
C849        C  0.53297227  0.04418909  0.15573327     0.87200
C850        C  0.54519927  0.43728756  0.37129207     0.87300
O851        O  0.96733875  0.03227981  0.22444215    -0.75000
O852        O  0.87822923  0.02202253  0.25539514    -0.75000
O853        O  0.93800582  0.99111545  0.32885270    -0.75000
O854        O  0.91785855  0.06656125  0.15557898    -0.75100
O855        O  0.93275892  0.47521759  0.10853389    -0.75000
O856        O  0.94489941  0.39428168  0.28230789    -0.75000
O857        O  0.88276902  0.42479942  0.20336328    -0.75000
O858        O  0.97295487  0.43124913  0.17838064    -0.75000
Ni859      Ni  0.92426628  0.03209414  0.24329368     1.25400
Ni860      Ni  0.93062953  0.42524594  0.19133327     1.25400
C861        C  0.98176245  0.47664089  0.21476317     0.87200
C862        C  0.86500788  0.47213926  0.23028708     0.87100
C863        C  0.95118119  0.43076422  0.33327670     0.87200
C864        C  0.93838118  0.03738527  0.11586250     0.87300
C865        C  0.51117769  0.32085161  0.40488234    -0.03000
C866        C  0.51589880  0.15116588  0.08167150    -0.03000
C867        C  0.57994015  0.21973425  0.98221701     0.79700
N868        N  0.56108069  0.27419981  0.46345642    -0.78600
C869        C  0.52779017  0.27185966  0.45543102     0.82100
N870        N  0.51391732  0.21344565  0.47191745    -0.78600
C871        C  0.53053175  0.16739253  0.01060560     0.82200
N872        N  0.56483265  0.16547351  0.00548106    -0.80300
C873        C  0.51589962  0.40115379  0.41408697    -0.03000
C874        C  0.51117832  0.07086488  0.09090833    -0.03000
C875        C  0.57994174  0.46978661  0.51349344     0.79700
N876        N  0.56484239  0.41550336  0.49025954    -0.78600
C877        C  0.53054051  0.41739733  0.48514549     0.82100
N878        N  0.51392486  0.46344170  0.52383332    -0.78600
C879        C  0.52778338  0.02185059  0.04036718     0.82200
N880        N  0.56107194  0.02419098  0.03233134    -0.80300
O881        O  0.76735293  0.19874094  0.01467332    -0.75000
O882        O  0.85634826  0.21659578  0.99064611    -0.75000
O883        O  0.81567769  0.16945386  0.58803735    -0.75000
O884        O  0.79717114  0.24499559  0.91350210    -0.75100
O885        O  0.78814773  0.34008178  0.96203808    -0.75000
O886        O  0.80070998  0.26096126  0.63506714    -0.75000
O887        O  0.84987834  0.31407067  0.54199103    -0.75000
O888        O  0.75986133  0.29782248  0.56355557    -0.75000
Ni889      Ni  0.81044662  0.20328369  0.99949780     1.25400
Ni890      Ni  0.80200346  0.30929007  0.55230923     1.25400
C891        C  0.75214349  0.25299417  0.52513703     0.87200
C892        C  0.86860748  0.26728595  0.01638471     0.87100
C893        C  0.79500432  0.19894913  0.62756952     0.87200
C894        C  0.78294290  0.30473193  0.91027670     0.87300
O895        O  0.72500541  0.22556047  0.93964350    -0.75000
O896        O  0.63717843  0.18381490  0.95959738    -0.75000
O897        O  0.68221906  0.24898118  0.86683547    -0.75000
O898        O  0.69913310  0.17120540  0.53703930    -0.75100
O899        O  0.68233624  0.26062739  0.58871252    -0.75000
O900        O  0.66733201  0.34069470  0.91475958    -0.75000
O901        O  0.62514585  0.28204748  0.50648051    -0.75000
O902        O  0.71217280  0.31770343  0.49749862    -0.75000
Ni903      Ni  0.68415406  0.20138113  0.94897084     1.25400
Ni904      Ni  0.66993292  0.30421189  0.50359663     1.25400
C905        C  0.73048593  0.26946328  0.48125545     0.87200
C906        C  0.61601069  0.22697341  0.48447570     0.87100
C907        C  0.68780831  0.31108780  0.87409467     0.87200
C908        C  0.70033394  0.20455689  0.58998490     0.87300
C909        C  0.71722480  0.34689914  0.83162514    -0.03000
C910        C  0.72198840  0.17722899  0.65483666    -0.03000
C911        C  0.65329568  0.28007643  0.73073589     0.79700
N912        N  0.66853502  0.33380938  0.75475483    -0.78600
C913        C  0.70280153  0.33116942  0.76036971     0.82100
N914        N  0.71938117  0.28493103  0.72180008    -0.78600
C915        C  0.70536342  0.22670091  0.70517180     0.82200
N916        N  0.67199602  0.22517552  0.71247069    -0.80300
C917        C  0.72199367  0.42722812  0.84107521    -0.03000
C918        C  0.71722812  0.09690484  0.66427596    -0.03000
C919        C  0.65329545  0.53022501  0.76528788     0.79700
N920        N  0.66855966  0.08390734  0.74119473    -0.78600
C921        C  0.70282360  0.08120691  0.73554346     0.82100
N922        N  0.71939000  0.53493540  0.77408422    -0.78600
C923        C  0.70536026  0.47672872  0.79074201     0.82200
N924        N  0.67198382  0.47527700  0.78351135    -0.80300
O925        O  0.76737267  0.44873726  0.48138767    -0.75000
O926        O  0.85638508  0.46654104  0.50531365    -0.75000
O927        O  0.79720695  0.49503688  0.58247779    -0.75000
O928        O  0.81567521  0.41936880  0.90799004    -0.75100
O929        O  0.80069121  0.01099483  0.86086175    -0.75000
O930        O  0.78819601  0.09014924  0.53387649    -0.75000
O931        O  0.84989175  0.06413805  0.95381373    -0.75000
O932        O  0.75987450  0.04787249  0.93243801    -0.75000
Ni933      Ni  0.81047207  0.45325756  0.49651449     1.25400
Ni934      Ni  0.80201681  0.05934612  0.94359503     1.25400
C935        C  0.75216775  0.50299117  0.97083944     0.87200
C936        C  0.86864210  0.51721287  0.97952644     0.87100
C937        C  0.78298012  0.05479621  0.58563723     0.87200
C938        C  0.79501564  0.44888179  0.86842919     0.87300
O939        O  0.72498735  0.47566948  0.55630011    -0.75000
O940        O  0.63717212  0.43388637  0.53620855    -0.75000
O941        O  0.69914419  0.42123416  0.95888783    -0.75000
O942        O  0.68217043  0.49907836  0.62904250    -0.75100
O943        O  0.66731223  0.09070022  0.58115690    -0.75000
O944        O  0.68232807  0.01065024  0.90720861    -0.75000
O945        O  0.62513452  0.03206040  0.98941252    -0.75000
O946        O  0.71215987  0.06771329  0.99839775    -0.75000
Ni947      Ni  0.68414082  0.45146867  0.54691580     1.25400
Ni948      Ni  0.66991944  0.05422651  0.99231332     1.25400
C949        C  0.73048643  0.01951079  0.01471037     0.87200
C950        C  0.61601137  0.47703967  0.01129172     0.87100
C951        C  0.70035059  0.45457362  0.90592927     0.87200
C952        C  0.68778995  0.06109667  0.62183129     0.87300
C953        C  0.76522627  0.41161485  0.82914525    -0.03000
C954        C  0.76092802  0.08144695  0.65236724    -0.03000
C955        C  0.82867414  0.47238104  0.72836613     0.79700
N956        N  0.81230608  0.41918489  0.74973582    -0.78600
C957        C  0.77836595  0.42474823  0.75659870     0.82100
N958        N  0.76252432  0.47292433  0.71893726    -0.78600
C959        C  0.77755104  0.02992742  0.70185693     0.82200
N960        N  0.81120250  0.02888183  0.70924084    -0.80300
C961        C  0.76092075  0.33142139  0.84353284    -0.03000
C962        C  0.76521745  0.16163338  0.66679445    -0.03000
C963        C  0.82866359  0.22228106  0.76761310     0.79700
N964        N  0.81120154  0.27885432  0.78667943    -0.78600
C965        C  0.77754802  0.27991212  0.79404746     0.82100
N966        N  0.76251065  0.22290359  0.77699652    -0.78600
C967        C  0.77834349  0.17471222  0.73935568     0.82200
N968        N  0.81228154  0.16910475  0.74624379    -0.80300
O969        O  0.50830123  0.27205202  0.69030407    -0.75000
O970        O  0.59584559  0.31601904  0.70894264    -0.75000
O971        O  0.55070849  0.24946617  0.61703392    -0.75000
O972        O  0.53363647  0.32746094  0.78701719    -0.75100
O973        O  0.55172308  0.23901026  0.83896756    -0.75000
O974        O  0.56582048  0.15792522  0.66513069    -0.75000
O975        O  0.60841589  0.21779175  0.75540943    -0.75000
O976        O  0.52181747  0.18085506  0.74941885    -0.75000
Ni977      Ni  0.54888876  0.29741160  0.69897756     1.25400
Ni978      Ni  0.56383194  0.19507427  0.75387781     1.25400
C979        C  0.50306001  0.22811678  0.73203598     0.87200
C980        C  0.61725852  0.27297646  0.73333805     0.87100
C981        C  0.54521409  0.18728746  0.62445171     0.87200
C982        C  0.53295337  0.29413710  0.84006966     0.87300
O983        O  0.96731276  0.28235264  0.77120786    -0.75000
O984        O  0.87820550  0.27197447  0.74042296    -0.75000
O985        O  0.91787525  0.31655509  0.84014762    -0.75000
O986        O  0.93796195  0.24106267  0.66686881    -0.75100
O987        O  0.94489503  0.14421784  0.71347443    -0.75000
O988        O  0.93279206  0.22515353  0.88724978    -0.75000
O989        O  0.88277976  0.17468442  0.79251322    -0.75000
O990        O  0.97298019  0.18124468  0.81731702    -0.75000
Ni991      Ni  0.92424319  0.28208031  0.75243269     1.25400
Ni992      Ni  0.93064969  0.17517587  0.80445882     1.25400
C993        C  0.98174162  0.22667011  0.78091362     0.87200
C994        C  0.86499732  0.22202323  0.76562040     0.87100
C995        C  0.93840834  0.28737561  0.87985443     0.87200
C996        C  0.95115004  0.18071551  0.66249626     0.87300
C997        C  0.96840790  0.32567182  0.91776134    -0.03000
C998        C  0.97268903  0.15562308  0.59435992    -0.03000
C999        C  0.90495873  0.26765931  0.02048611     0.79700
N1000       N  0.92162385  0.32013853  0.99814862    -0.78600
C1001       C  0.95556117  0.31360499  0.99074072     0.82100
N1002       N  0.97128225  0.26487648  0.02807147    -0.78600
C1003       C  0.95590666  0.20854915  0.54605833     0.82200
N1004       N  0.92218571  0.21079062  0.53971234    -0.80300
C1005       C  0.97271307  0.40562468  0.90140300    -0.03000
C1006       C  0.96839993  0.07567215  0.57798083    -0.03000
C1007       C  0.90498637  0.51759321  0.97535249     0.79700
N1008       N  0.92221698  0.46073747  0.95610844    -0.78600
C1009       C  0.95593533  0.45852751  0.94972681     0.82100
N1010       N  0.97130444  0.51486789  0.96770226    -0.78600
C1011       C  0.95557406  0.06362621  0.50498639     0.82200
N1012       N  0.92164268  0.07018256  0.49754755    -0.80300
O1013       O  0.50831599  0.02196507  0.80542746    -0.75000
O1014       O  0.59583568  0.06615861  0.78697591    -0.75000
O1015       O  0.53362300  0.07748709  0.70880334    -0.75000
O1016       O  0.55069908  0.99947385  0.87877650    -0.75100
O1017       O  0.56581352  0.40794621  0.83061646    -0.75000
O1018       O  0.55181315  0.48912955  0.65675903    -0.75000
O1019       O  0.60844876  0.46795111  0.74052248    -0.75000
O1020       O  0.52189708  0.43075437  0.74607809    -0.75000
Ni1021     Ni  0.54888285  0.04744171  0.79684527     1.25400
Ni1022     Ni  0.56388956  0.44513441  0.74185678     1.25400
C1023       C  0.50309298  0.47790915  0.76354191     0.87200
C1024       C  0.61725738  0.52313834  0.76262331     0.87100
C1025       C  0.53297225  0.04418928  0.65573334     0.87200
C1026       C  0.54519924  0.43728774  0.87129213     0.87300
O1027       O  0.96733864  0.03227987  0.72444223    -0.75000
O1028       O  0.87822922  0.02202255  0.75539533    -0.75000
O1029       O  0.93800579  0.99111522  0.82885282    -0.75000
O1030       O  0.91785845  0.06656119  0.65557879    -0.75100
O1031       O  0.93275890  0.47521757  0.60853393    -0.75000
O1032       O  0.94489939  0.39428143  0.78230791    -0.75000
O1033       O  0.88276905  0.42479928  0.70336310    -0.75000
O1034       O  0.97295478  0.43124913  0.67838096    -0.75000
Ni1035     Ni  0.92426623  0.03209414  0.74329370     1.25400
Ni1036     Ni  0.93062948  0.42524593  0.69133330     1.25400
C1037       C  0.98176236  0.47664042  0.71476327     0.87200
C1038       C  0.86500772  0.47213978  0.73028711     0.87100
C1039       C  0.95118119  0.43076422  0.83327678     0.87200
C1040       C  0.93838119  0.03738486  0.61586233     0.87300
C1041       C  0.51117770  0.32085179  0.90488234    -0.03000
C1042       C  0.51589877  0.15116590  0.58167164    -0.03000
C1043       C  0.57994017  0.21973442  0.48221675     0.79700
N1044       N  0.56108060  0.27420004  0.96345637    -0.78600
C1045       C  0.52779022  0.27186002  0.95543095     0.82100
N1046       N  0.51391734  0.21344567  0.97191752    -0.78600
C1047       C  0.53053179  0.16739237  0.51060564     0.82200
N1048       N  0.56483261  0.16547337  0.50548111    -0.80300
C1049       C  0.51589957  0.40115391  0.91408681    -0.03000
C1050       C  0.51117839  0.07086495  0.59090838    -0.03000
C1051       C  0.57994193  0.46978794  0.01349381     0.79700
N1052       N  0.56484222  0.41550296  0.99025927    -0.78600
C1053       C  0.53054067  0.41739754  0.98514582     0.82100
N1054       N  0.51392481  0.46344138  0.02383327    -0.78600
C1055       C  0.52778337  0.02185010  0.54036688     0.82200
N1056       N  0.56107188  0.02419094  0.53233143    -0.80300
O1057       O  0.76736269  0.69877204  0.51467312    -0.75000
O1058       O  0.85636156  0.71657421  0.49064982    -0.75000
O1059       O  0.81567986  0.66942258  0.08802309    -0.75000
O1060       O  0.79718663  0.74504918  0.41351570    -0.75100
O1061       O  0.78818998  0.84014426  0.46205545    -0.75000
O1062       O  0.80074984  0.76094109  0.13506965    -0.75000
O1063       O  0.84991155  0.81406208  0.04197971    -0.75000
O1064       O  0.75990252  0.79784638  0.06359718    -0.75000
Ni1065     Ni  0.81045737  0.70329247  0.49949662     1.25400
Ni1066     Ni  0.80204241  0.80930042  0.05232329     1.25400
C1067       C  0.75217113  0.75304917  0.02515672     0.87200
C1068       C  0.86862929  0.76726420  0.51637189     0.87100
C1069       C  0.79501986  0.69893762  0.12756830     0.87200
C1070       C  0.78296641  0.80479446  0.41029657     0.87300
O1071       O  0.72502320  0.72571132  0.43965001    -0.75000
O1072       O  0.63720248  0.68391178  0.45966599    -0.75000
O1073       O  0.68220294  0.74907506  0.36687831    -0.75000
O1074       O  0.69917643  0.67128484  0.03704427    -0.75100
O1075       O  0.68235063  0.76068353  0.08874493    -0.75000
O1076       O  0.66733642  0.84078647  0.41481524    -0.75000
O1077       O  0.62515506  0.78215240  0.00651914    -0.75000
O1078       O  0.71219440  0.81779245  0.99759744    -0.75000
Ni1079     Ni  0.68417576  0.70149428  0.44900676     1.25400
Ni1080     Ni  0.66994723  0.80430607  0.00365540     1.25400
C1081       C  0.73051004  0.76957566  0.98129513     0.87200
C1082       C  0.61602522  0.72707346  0.98451566     0.87100
C1083       C  0.68780211  0.81117195  0.37413750     0.87200
C1084       C  0.70035649  0.70461890  0.09000391     0.87300
C1085       C  0.71722204  0.84694947  0.33165843    -0.03000
C1086       C  0.72199135  0.67726802  0.15485964    -0.03000
C1087       C  0.65327875  0.78016389  0.23068553     0.79700
N1088       N  0.66852433  0.83385958  0.25477799    -0.78600
C1089       C  0.70279187  0.83119971  0.26041180     0.82100
N1090       N  0.71937271  0.78495516  0.22185361    -0.78600
C1091       C  0.70535146  0.72673884  0.20519467     0.82200
N1092       N  0.67197778  0.72524830  0.21243518    -0.80300
C1093       C  0.72199160  0.92727077  0.34109131    -0.03000
C1094       C  0.71722106  0.59694065  0.16427102    -0.03000
C1095       C  0.65330683  0.03022311  0.26527793     0.79700
N1096       N  0.66854851  0.58389601  0.24117772    -0.78600
C1097       C  0.70281177  0.58119719  0.23552655     0.82100
N1098       N  0.71940056  0.03495830  0.27411215    -0.78600
C1099       C  0.70536741  0.97675485  0.29076282     0.82200
N1100       N  0.67199512  0.97528611  0.28350991    -0.80300
O1101       O  0.76738326  0.94879853  0.98136083    -0.75000
O1102       O  0.85638325  0.96668466  0.00520632    -0.75000
O1103       O  0.79722952  0.99508027  0.08243333    -0.75000
O1104       O  0.81566575  0.91949083  0.40792199    -0.75100
O1105       O  0.80074930  0.51087900  0.36091348    -0.75000
O1106       O  0.78819176  0.59010551  0.03388848    -0.75000
O1107       O  0.84991200  0.56400876  0.45394361    -0.75000
O1108       O  0.75990443  0.54778247  0.43239634    -0.75000
Ni1109     Ni  0.81047922  0.95335797  0.99644602     1.25400
Ni1110     Ni  0.80204370  0.55923938  0.44364102     1.25400
C1111       C  0.75216419  0.00304595  0.47086915     0.87200
C1112       C  0.86863027  0.01735076  0.47939624     0.87100
C1113       C  0.78296842  0.55476966  0.08565987     0.87200
C1114       C  0.79498874  0.94898286  0.36838380     0.87300
O1115       O  0.72500122  0.97561082  0.05632240    -0.75000
O1116       O  0.63717808  0.93380681  0.03625387    -0.75000
O1117       O  0.69916875  0.92126459  0.45890105    -0.75000
O1118       O  0.68219617  0.99899155  0.12909275    -0.75100
O1119       O  0.66732622  0.59079199  0.08107494    -0.75000
O1120       O  0.68235648  0.51065101  0.40717388    -0.75000
O1121       O  0.62515048  0.53212562  0.48931747    -0.75000
O1122       O  0.71218559  0.56777026  0.49834276    -0.75000
Ni1123     Ni  0.68415395  0.95140542  0.04694955     1.25400
Ni1124     Ni  0.66994037  0.55428514  0.49224037     1.25400
C1125       C  0.73048979  0.51953128  0.51465961     0.87200
C1126       C  0.61600482  0.97696676  0.51137486     0.87100
C1127       C  0.70035025  0.95460763  0.40594778     0.87200
C1128       C  0.68778269  0.56117412  0.12178373     0.87300
C1129       C  0.76521601  0.91165901  0.32913944    -0.03000
C1130       C  0.76092181  0.58146177  0.15238356    -0.03000
C1131       C  0.82866771  0.97232199  0.22832868     0.79700
N1132       N  0.81229003  0.91914681  0.24971873    -0.78600
C1133       C  0.77835019  0.92474261  0.25658562     0.82100
N1134       N  0.76251507  0.97291792  0.21891582    -0.78600
C1135       C  0.77754835  0.52995358  0.20188907     0.82200
N1136       N  0.81119951  0.52893317  0.20928192    -0.80300
C1137       C  0.76092281  0.83146830  0.34355935    -0.03000
C1138       C  0.76522071  0.66165413  0.16680795    -0.03000
C1139       C  0.82866169  0.72233883  0.26757828     0.79700
N1140       N  0.81119868  0.77890299  0.28666587    -0.78600
C1141       C  0.77754616  0.77994824  0.29406751     0.82100
N1142       N  0.76251052  0.72293379  0.27701810    -0.78600
C1143       C  0.77834350  0.67474405  0.23937233     0.82200
N1144       N  0.81228101  0.66914602  0.24625046    -0.80300
O1145       O  0.50828240  0.77201397  0.19026140    -0.75000
O1146       O  0.59581383  0.81610635  0.20887344    -0.75000
O1147       O  0.55067736  0.74949219  0.11698490    -0.75000
O1148       O  0.53360138  0.82750837  0.28696201    -0.75100
O1149       O  0.55171979  0.73907564  0.33891293    -0.75000
O1150       O  0.56580225  0.65795460  0.16508686    -0.75000
O1151       O  0.60839981  0.71787984  0.25532575    -0.75000
O1152       O  0.52182023  0.68084091  0.24940431    -0.75000
Ni1153     Ni  0.54885657  0.79744687  0.19892268     1.25400
Ni1154     Ni  0.56382485  0.69512277  0.25382707     1.25400
C1155       C  0.50305306  0.72808266  0.23200727     0.87200
C1156       C  0.61723583  0.77307063  0.23326405     0.87100
C1157       C  0.54519534  0.68730611  0.12440178     0.87200
C1158       C  0.53293619  0.79418577  0.34002088     0.87300
O1159       O  0.96731520  0.78238787  0.27113780    -0.75000
O1160       O  0.87820045  0.77204107  0.24034150    -0.75000
O1161       O  0.91786420  0.81659250  0.34008196    -0.75000
O1162       O  0.93796762  0.74111008  0.16679186    -0.75100
O1163       O  0.94492794  0.64428842  0.21343324    -0.75000
O1164       O  0.93276337  0.72519461  0.38718790    -0.75000
O1165       O  0.88278187  0.67473007  0.29239101    -0.75000
O1166       O  0.97297189  0.68131379  0.31731592    -0.75000
Ni1167     Ni  0.92424170  0.78213203  0.25235559     1.25400
Ni1168     Ni  0.93064721  0.67523385  0.30439191     1.25400
C1169       C  0.98174490  0.72671461  0.28089889     0.87200
C1170       C  0.86499531  0.72208340  0.26553605     0.87100
C1171       C  0.93839266  0.78740849  0.37979510     0.87200
C1172       C  0.95117191  0.68077108  0.16244476     0.87300
C1173       C  0.96840089  0.82568461  0.41771631    -0.03000
C1174       C  0.97271538  0.65564330  0.09433327    -0.03000
C1175       C  0.90497609  0.76763430  0.52044257     0.79700
N1176       N  0.92163096  0.82012912  0.49811367    -0.78600
C1177       C  0.95556449  0.81360995  0.49069423     0.82100
N1178       N  0.97129452  0.76488679  0.52802071    -0.78600
C1179       C  0.95593037  0.70854392  0.04600259     0.82200
N1180       N  0.92220994  0.71076682  0.03965310    -0.80300
C1181       C  0.97269961  0.90564049  0.40136516    -0.03000
C1182       C  0.96842316  0.57568069  0.07800398    -0.03000
C1183       C  0.90497410  0.01771170  0.47521667     0.79700
N1184       N  0.92219320  0.96082912  0.45599958    -0.78600
C1185       C  0.95591545  0.95856723  0.44967049     0.82100
N1186       N  0.97129339  0.01488777  0.46767052    -0.78600
C1187       C  0.95558083  0.56359474  0.00502471     0.82200
N1188       N  0.92164594  0.57010429  0.99761979    -0.80300
O1189       O  0.50829855  0.52183847  0.30530997    -0.75000
O1190       O  0.59581046  0.56616257  0.28694676    -0.75000
O1191       O  0.53361302  0.57747032  0.20873759    -0.75000
O1192       O  0.55067362  0.49947222  0.37871445    -0.75100
O1193       O  0.56580906  0.90794554  0.33065107    -0.75000
O1194       O  0.55180296  0.98914014  0.15682299    -0.75000
O1195       O  0.60845082  0.96794599  0.24053393    -0.75000
O1196       O  0.52187859  0.93087170  0.24618334    -0.75000
Ni1197     Ni  0.54885666  0.54740287  0.29677426     1.25400
Ni1198     Ni  0.56388097  0.94516365  0.24191043     1.25400
C1199       C  0.50308861  0.97804438  0.26366729     0.87200
C1200       C  0.61727059  0.02313309  0.26262695     0.87100
C1201       C  0.53297880  0.54417975  0.15566257     0.87200
C1202       C  0.54520503  0.93729657  0.37133870     0.87300
O1203       O  0.96735179  0.53233798  0.22454647    -0.75000
O1204       O  0.87823539  0.52209457  0.25543542    -0.75000
O1205       O  0.93801093  0.49112398  0.32891805    -0.75000
O1206       O  0.91788397  0.56661247  0.15563853    -0.75100
O1207       O  0.93274866  0.97517180  0.10846677    -0.75000
O1208       O  0.94490071  0.89427409  0.28225796    -0.75000
O1209       O  0.88276205  0.92473556  0.20330795    -0.75000
O1210       O  0.97295046  0.93117856  0.17831066    -0.75000
Ni1211     Ni  0.92427745  0.53214595  0.24336321     1.25400
Ni1212     Ni  0.93062309  0.92518972  0.19127030     1.25400
C1213       C  0.98175254  0.97658391  0.21468323     0.87200
C1214       C  0.86500160  0.97206751  0.23024755     0.87100
C1215       C  0.95117551  0.93076193  0.33322648     0.87200
C1216       C  0.93840603  0.53742266  0.11592804     0.87300
C1217       C  0.51116742  0.82087567  0.40485253    -0.03000
C1218       C  0.51589868  0.65116573  0.08160035    -0.03000
C1219       C  0.57995238  0.71980993  0.98222493     0.79700
N1220       N  0.56108200  0.77425246  0.46343272    -0.78600
C1221       C  0.52779218  0.77187882  0.45538475     0.82100
N1222       N  0.51393138  0.71344771  0.47185240    -0.78600
C1223       C  0.53054806  0.66740744  0.01054909     0.82200
N1224       N  0.56485109  0.66552905  0.00546059    -0.80300
C1225       C  0.51588961  0.90117115  0.41411068    -0.03000
C1226       C  0.51118536  0.57086255  0.09083563    -0.03000
C1227       C  0.57993217  0.96972109  0.51359408     0.79700
N1228       N  0.56482425  0.91546301  0.49032470    -0.78600
C1229       C  0.53052306  0.91738585  0.48518863     0.82100
N1230       N  0.51391001  0.96343365  0.52388361    -0.78600
C1231       C  0.52779107  0.52187057  0.04029565     0.82200
N1232       N  0.56107575  0.52424088  0.03223938    -0.80300
O1233       O  0.76736258  0.69877201  0.01467338    -0.75000
O1234       O  0.85636148  0.71657431  0.99064980    -0.75000
O1235       O  0.81567984  0.66942253  0.58802306    -0.75000
O1236       O  0.79718657  0.74504915  0.91351552    -0.75100
O1237       O  0.78819015  0.84014425  0.96205542    -0.75000
O1238       O  0.80074988  0.76094102  0.63506973    -0.75000
O1239       O  0.84991144  0.81406202  0.54197977    -0.75000
O1240       O  0.75990252  0.79784619  0.56359739    -0.75000
Ni1241     Ni  0.81045724  0.70329248  0.99949663     1.25400
Ni1242     Ni  0.80204234  0.80930037  0.55232337     1.25400
C1243       C  0.75217114  0.75304833  0.52515654     0.87200
C1244       C  0.86862908  0.76726361  0.01637167     0.87100
C1245       C  0.79501990  0.69893738  0.62756809     0.87200
C1246       C  0.78296648  0.80479394  0.91029614     0.87300
O1247       O  0.72502321  0.72571142  0.93965031    -0.75000
O1248       O  0.63720259  0.68391138  0.95966595    -0.75000
O1249       O  0.68220292  0.74907507  0.86687831    -0.75000
O1250       O  0.69917650  0.67128490  0.53704438    -0.75100
O1251       O  0.68235067  0.76068367  0.58874496    -0.75000
O1252       O  0.66733638  0.84078636  0.91481551    -0.75000
O1253       O  0.62515515  0.78215282  0.50651922    -0.75000
O1254       O  0.71219456  0.81779238  0.49759713    -0.75000
Ni1255     Ni  0.68417578  0.70149426  0.94900672     1.25400
Ni1256     Ni  0.66994729  0.80430625  0.50365530     1.25400
C1257       C  0.73051005  0.76957614  0.48129535     0.87200
C1258       C  0.61602544  0.72707246  0.48451525     0.87100
C1259       C  0.68780207  0.81117208  0.87413767     0.87200
C1260       C  0.70035652  0.70461886  0.59000387     0.87300
C1261       C  0.71722198  0.84694958  0.83165857    -0.03000
C1262       C  0.72199125  0.67726799  0.65485958    -0.03000
C1263       C  0.65327940  0.78016334  0.73068520     0.79700
N1264       N  0.66852416  0.83385980  0.75477793    -0.78600
C1265       C  0.70279228  0.83119946  0.76041179     0.82100
N1266       N  0.71937258  0.78495521  0.72185377    -0.78600
C1267       C  0.70535203  0.72673889  0.70519456     0.82200
N1268       N  0.67197742  0.72524865  0.71243548    -0.80300
C1269       C  0.72199163  0.92727061  0.84109135    -0.03000
C1270       C  0.71722106  0.59694059  0.66427084    -0.03000
C1271       C  0.65330709  0.03022354  0.76527792     0.79700
N1272       N  0.66854851  0.58389616  0.74117753    -0.78600
C1273       C  0.70281169  0.58119698  0.73552648     0.82100
N1274       N  0.71940053  0.03495825  0.77411230    -0.78600
C1275       C  0.70536764  0.97675493  0.79076255     0.82200
N1276       N  0.67199510  0.97528593  0.78350988    -0.80300
O1277       O  0.76738320  0.94879874  0.48136074    -0.75000
O1278       O  0.85638317  0.96668452  0.50520644    -0.75000
O1279       O  0.79722949  0.99508023  0.58243339    -0.75000
O1280       O  0.81566579  0.91949098  0.90792197    -0.75100
O1281       O  0.80074924  0.51087908  0.86091361    -0.75000
O1282       O  0.78819185  0.59010540  0.53388832    -0.75000
O1283       O  0.84991194  0.56400909  0.95394384    -0.75000
O1284       O  0.75990429  0.54778215  0.93239663    -0.75000
Ni1285     Ni  0.81047913  0.95335795  0.49644604     1.25400
Ni1286     Ni  0.80204365  0.55923941  0.94364117     1.25400
C1287       C  0.75216417  0.00304587  0.97086917     0.87200
C1288       C  0.86863024  0.01735153  0.97939596     0.87100
C1289       C  0.78296853  0.55476949  0.58565984     0.87200
C1290       C  0.79498875  0.94898283  0.86838378     0.87300
O1291       O  0.72500114  0.97561089  0.55632231    -0.75000
O1292       O  0.63717802  0.93380680  0.53625395    -0.75000
O1293       O  0.69916872  0.92126451  0.95890110    -0.75000
O1294       O  0.68219610  0.99899156  0.62909279    -0.75100
O1295       O  0.66732618  0.59079192  0.58107479    -0.75000
O1296       O  0.68235658  0.51065122  0.90717390    -0.75000
O1297       O  0.62515060  0.53212620  0.98931767    -0.75000
O1298       O  0.71218550  0.56777063  0.99834289    -0.75000
Ni1299     Ni  0.68415392  0.95140539  0.54694958     1.25400
Ni1300     Ni  0.66994041  0.55428535  0.99224047     1.25400
C1301       C  0.73048983  0.51953019  0.01466020     0.87200
C1302       C  0.61600494  0.97696695  0.01137478     0.87100
C1303       C  0.70035026  0.95460783  0.90594762     0.87200
C1304       C  0.68778261  0.56117410  0.62178373     0.87300
C1305       C  0.76521602  0.91165892  0.82913936    -0.03000
C1306       C  0.76092175  0.58146162  0.65238327    -0.03000
C1307       C  0.82866787  0.97232209  0.72832848     0.79700
N1308       N  0.81229005  0.91914682  0.74971882    -0.78600
C1309       C  0.77835034  0.92474263  0.75658564     0.82100
N1310       N  0.76251511  0.97291784  0.71891573    -0.78600
C1311       C  0.77754859  0.52995342  0.70188911     0.82200
N1312       N  0.81119931  0.52893342  0.70928171    -0.80300
C1313       C  0.76092273  0.83146849  0.84355960    -0.03000
C1314       C  0.76522064  0.66165427  0.66680795    -0.03000
C1315       C  0.82866205  0.72233757  0.76757792     0.79700
N1316       N  0.81119835  0.77890360  0.78666615    -0.78600
C1317       C  0.77754642  0.77994759  0.79406724     0.82100
N1318       N  0.76251035  0.72293417  0.77701831    -0.78600
C1319       C  0.77834380  0.67474364  0.73937168     0.82200
N1320       N  0.81228083  0.66914638  0.74625065    -0.80300
O1321       O  0.50828241  0.77201407  0.69026128    -0.75000
O1322       O  0.59581401  0.81610627  0.70887359    -0.75000
O1323       O  0.55067739  0.74949213  0.61698484    -0.75000
O1324       O  0.53360146  0.82750835  0.78696198    -0.75100
O1325       O  0.55171982  0.73907541  0.83891282    -0.75000
O1326       O  0.56580224  0.65795445  0.66508668    -0.75000
O1327       O  0.60839993  0.71787979  0.75532571    -0.75000
O1328       O  0.52182030  0.68084114  0.74940418    -0.75000
Ni1329     Ni  0.54885661  0.79744677  0.69892267     1.25400
Ni1330     Ni  0.56382488  0.69512282  0.75382684     1.25400
C1331       C  0.50305311  0.72808279  0.73200734     0.87200
C1332       C  0.61723560  0.77307136  0.73326390     0.87100
C1333       C  0.54519531  0.68730622  0.62440140     0.87200
C1334       C  0.53293632  0.79418558  0.84002098     0.87300
O1335       O  0.96731508  0.78238802  0.77113755    -0.75000
O1336       O  0.87820049  0.77204078  0.74034136    -0.75000
O1337       O  0.91786419  0.81659251  0.84008195    -0.75000
O1338       O  0.93796748  0.74110998  0.66679169    -0.75100
O1339       O  0.94492785  0.64428843  0.71343319    -0.75000
O1340       O  0.93276331  0.72519454  0.88718773    -0.75000
O1341       O  0.88278190  0.67472983  0.79239110    -0.75000
O1342       O  0.97297193  0.68131388  0.81731563    -0.75000
Ni1343     Ni  0.92424171  0.78213201  0.75235547     1.25400
Ni1344     Ni  0.93064717  0.67523376  0.80439180     1.25400
C1345       C  0.98174498  0.72671370  0.78089923     0.87200
C1346       C  0.86499511  0.72208432  0.76553561     0.87100
C1347       C  0.93839268  0.78740832  0.87979509     0.87200
C1348       C  0.95117180  0.68077107  0.66244480     0.87300
C1349       C  0.96840079  0.82568461  0.91771637    -0.03000
C1350       C  0.97271545  0.65564327  0.59433320    -0.03000
C1351       C  0.90497647  0.76763449  0.02044231     0.79700
N1352       N  0.92163068  0.82012886  0.99811391    -0.78600
C1353       C  0.95556476  0.81360991  0.99069419     0.82100
N1354       N  0.97129439  0.76488690  0.02802069    -0.78600
C1355       C  0.95592998  0.70854356  0.54600249     0.82200
N1356       N  0.92221013  0.71076705  0.53965297    -0.80300
C1357       C  0.97269967  0.90564042  0.90136513    -0.03000
C1358       C  0.96842309  0.57568069  0.57800399    -0.03000
C1359       C  0.90497411  0.01771165  0.97521642     0.79700
N1360       N  0.92219315  0.96082933  0.95599968    -0.78600
C1361       C  0.95591555  0.95856745  0.94967051     0.82100
N1362       N  0.97129340  0.01488781  0.96767036    -0.78600
C1363       C  0.95558126  0.56359425  0.50502441     0.82200
N1364       N  0.92164579  0.57010434  0.49761998    -0.80300
O1365       O  0.50829861  0.52183866  0.80530986    -0.75000
O1366       O  0.59581052  0.56616255  0.78694663    -0.75000
O1367       O  0.53361303  0.57747048  0.70873749    -0.75000
O1368       O  0.55067360  0.49947235  0.87871423    -0.75100
O1369       O  0.56580907  0.90794549  0.83065120    -0.75000
O1370       O  0.55180295  0.98914016  0.65682305    -0.75000
O1371       O  0.60845089  0.96794610  0.74053379    -0.75000
O1372       O  0.52187872  0.93087174  0.74618320    -0.75000
Ni1373     Ni  0.54885668  0.54740306  0.79677411     1.25400
Ni1374     Ni  0.56388099  0.94516361  0.74191041     1.25400
C1375       C  0.50308865  0.97804532  0.76366755     0.87200
C1376       C  0.61727057  0.02313266  0.76262683     0.87100
C1377       C  0.53297876  0.54417971  0.65566241     0.87200
C1378       C  0.54520499  0.93729661  0.87133880     0.87300
O1379       O  0.96735173  0.53233821  0.72454627    -0.75000
O1380       O  0.87823537  0.52209450  0.75543512    -0.75000
O1381       O  0.93801099  0.49112381  0.82891795    -0.75000
O1382       O  0.91788400  0.56661242  0.65563849    -0.75100
O1383       O  0.93274873  0.97517142  0.60846706    -0.75000
O1384       O  0.94490077  0.89427388  0.78225823    -0.75000
O1385       O  0.88276210  0.92473539  0.70330838    -0.75000
O1386       O  0.97295047  0.93117854  0.67831102    -0.75000
Ni1387     Ni  0.92427744  0.53214594  0.74336311     1.25400
Ni1388     Ni  0.93062311  0.92518948  0.69127065     1.25400
C1389       C  0.98175257  0.97658265  0.71468297     0.87200
C1390       C  0.86500159  0.97206733  0.73024776     0.87100
C1391       C  0.95117559  0.93076190  0.83322658     0.87200
C1392       C  0.93840615  0.53742253  0.61592795     0.87300
C1393       C  0.51116746  0.82087579  0.90485240    -0.03000
C1394       C  0.51589875  0.65116556  0.58160037    -0.03000
C1395       C  0.57995216  0.71981141  0.48222458     0.79700
N1396       N  0.56108182  0.77425303  0.96343242    -0.78600
C1397       C  0.52779238  0.77187812  0.95538508     0.82100
N1398       N  0.51393126  0.71344809  0.97185204    -0.78600
C1399       C  0.53054783  0.66740799  0.51054846     0.82200
N1400       N  0.56485120  0.66552855  0.50546070    -0.80300
C1401       C  0.51588965  0.90117100  0.91411065    -0.03000
C1402       C  0.51118535  0.57086289  0.59083558    -0.03000
C1403       C  0.57993204  0.96972131  0.01359414     0.79700
N1404       N  0.56482439  0.91546317  0.99032465    -0.78600
C1405       C  0.53052272  0.91738641  0.98518907     0.82100
N1406       N  0.51391009  0.96343330  0.02388348    -0.78600
C1407       C  0.52779092  0.52187012  0.54029538     0.82200
N1408       N  0.56107579  0.52424127  0.53223958    -0.80300
loop_ 
_geom_bond_atom_site_label_1 
_geom_bond_atom_site_label_2 
_geom_bond_distance 
_geom_bond_site_symmetry_2 
_ccdc_geom_bond_type 
O1           Ni9   1.776       .  S
O1          C187   1.254       .  A
O2           Ni9   1.893       .  S
O2           C12   1.277       .  A
O3         Ni185   1.926       .  S
O3           C13   1.275       .  A
O4           Ni9   1.987       .  S
O4           C14   1.303       .  A
O5         Ni186   2.032       .  S
O5           C14   1.307       .  A
O6          Ni10   1.971       .  S
O6           C13   1.301       .  A
O7          Ni10   1.939       .  S
O7          C188   1.283       .  A
O8          Ni10   1.733       .  S
O8           C11   1.244       .  A
Ni9         O179   1.926       .  S
Ni9        Ni186   2.408       .  S
Ni10        O181   2.032   1_554  S
Ni10       Ni185   2.408       .  S
C11         O177   1.254       .  A
C11          C25   1.278   1_554  S
C12         O183   1.283       .  A
C12         C119   1.464       .  S
C13          C82   1.660       .  S
C14          C81   1.694       .  S
O15         Ni23   1.757       .  S
O15         C201   1.260       .  A
O16         Ni23   1.972       .  S
O16         C202   1.292       .  A
O17         Ni23   1.922       .  S
O17          C27   1.297       .  A
O18        Ni199   1.969   1_554  S
O18          C28   1.267       .  A
O19         Ni24   1.989       .  S
O19          C28   1.313       .  A
O20        Ni200   1.974       .  S
O20          C27   1.297       .  A
O21         Ni24   1.865       .  S
O21          C26   1.269   1_554  A
O22         Ni24   1.721       .  S
O22          C25   1.234   1_554  A
Ni23        O194   1.969       .  S
Ni23       Ni200   2.390       .  S
Ni24        O196   1.974   1_554  S
Ni24       Ni199   2.390   1_554  S
C25         O191   1.260       .  A
C26         O192   1.292       .  A
C26         C163   1.473       .  S
C27          C29   1.669       .  S
C28          C30   1.641       .  S
C29          C33   1.602       .  S
C29          C37   1.647       .  S
C29          C81   1.782       .  S
C30          C35   1.550       .  S
C30          C38   1.647       .  S
C30          C82   1.763       .  S
C31         C100   1.471       .  S
C31          N32   1.370       .  A
C31          N36   1.353       .  A
N32          C33   1.385       .  A
C33          N34   1.364       .  A
N34          C35   1.375       .  A
C35          N36   1.348       .  A
C37          C43   1.550       .  S
C37          C71   1.641       .  S
C37          C73   1.763       .  S
C38          C41   1.601       .  S
C38          C72   1.670       .  S
C38          C74   1.782       .  S
C39         C144   1.471       .  S
C39          N44   1.353       .  A
C39         N392   1.370       .  A
N40          C41   1.385       .  A
N40         C391   1.370       .  A
C41         N394   1.364       .  A
N42          C43   1.375       .  A
N42         C393   1.364       .  A
C43          N44   1.348       .  A
O45         Ni53   1.776       .  S
O45         C231   1.254       .  A
O46         Ni53   1.893   1_554  S
O46         C232   1.277   1_554  A
O47         Ni53   1.987   1_554  S
O47         C409   1.303       .  A
O48        Ni229   1.926       .  S
O48          C58   1.275       .  A
O49         Ni54   1.970       .  S
O49         C410   1.301   1_545  A
O50        Ni230   2.032   1_554  S
O50          C57   1.307       .  A
O51         Ni54   1.939       .  S
O51         C408   1.283       .  A
O52         Ni54   1.733       .  S
O52         C407   1.244       .  A
Ni53        O224   1.926       .  S
Ni53       Ni582   2.409       .  S
Ni54        O226   2.032       .  S
Ni54       Ni581   2.408   1_545  S
C55         O221   1.254       .  A
C55         O404   1.244       .  A
C55         C421   1.278       .  S
C56         O222   1.277       .  A
C56         O403   1.283       .  A
C56         C127   1.464       .  S
C57         O399   1.303       .  A
C57          C74   1.694       .  S
C58         O401   1.301       .  A
C58          C73   1.660       .  S
O59         Ni67   1.758       .  S
O59         C597   1.260       .  A
O60         Ni67   1.972       .  S
O60         C246   1.292       .  A
O61        Ni243   1.970       .  S
O61          C71   1.267       .  A
O62         Ni67   1.922       .  S
O62         C424   1.297       .  A
O63        Ni244   1.974   1_554  S
O63          C72   1.297       .  A
O64         Ni68   1.989       .  S
O64         C423   1.312   1_545  A
O65         Ni68   1.865       .  S
O65         C422   1.269   1_545  A
O66         Ni68   1.721       .  S
O66          C69   1.234       .  A
Ni67        O237   1.970   1_554  S
Ni67       Ni596   2.390   1_554  S
Ni68        O239   1.974       .  S
Ni68       Ni595   2.390   1_545  S
C69         O587   1.260   1_545  A
C69         C407   1.278       .  S
C70         O236   1.292       .  A
C70         O417   1.269       .  A
C70         C171   1.473       .  S
C71         O416   1.312       .  A
C72         O414   1.297       .  A
C73          C77   1.600       .  S
C73          C81   1.668       .  S
C74          C79   1.576       .  S
C74          C82   1.668       .  S
C75         C158   1.467       .  S
C75          N76   1.367       .  A
C75         N432   1.363       .  A
N76          C77   1.374       .  A
C77          N78   1.370       .  A
N78         C431   1.376       .  A
C79          N80   1.358       .  A
C79         N430   1.376   1_545  A
N80         C427   1.363   1_545  A
C81          C85   1.576       .  S
C82          C87   1.600       .  S
C83         C114   1.467       .  S
C83          N84   1.363       .  A
C83          N88   1.367       .  A
N84          C85   1.358       .  A
C85          N86   1.376       .  A
N86          C87   1.370       .  A
C87          N88   1.374       .  A
O89         Ni97   1.756       .  S
O89          C99   1.261       .  A
O90         Ni97   1.969       .  S
O90         C100   1.291       .  A
O91         Ni97   1.925       .  S
O91         C101   1.297       .  A
O92         Ni97   1.970       .  S
O92         C102   1.266       .  A
O93         Ni98   1.987       .  S
O93         C102   1.311       .  A
O94         Ni98   1.969       .  S
O94         C101   1.295       .  A
O95         Ni98   1.867       .  S
O95         C100   1.270       .  A
O96         Ni98   1.719       .  S
O96          C99   1.232       .  A
Ni97        Ni98   2.391       .  S
C99         C817   1.277   1_455  S
C101        C162   1.666       .  S
C102        C161   1.643       .  S
O103       Ni111   1.762       .  S
O103        C113   1.243       .  A
O104       Ni111   1.890       .  S
O104        C114   1.275       .  A
O105       Ni111   1.934       .  S
O105        C115   1.280       .  A
O106       Ni111   1.996       .  S
O106        C116   1.305       .  A
O107       Ni112   2.011       .  S
O107        C116   1.296       .  A
O108       Ni112   1.951       .  S
O108        C115   1.298       .  A
O109       Ni112   1.946       .  S
O109        C114   1.285       .  A
O110       Ni112   1.735       .  S
O110        C113   1.249       .  A
Ni111      Ni112   2.404       .  S
C113        C803   1.275       .  S
C115        C117   1.658       .  S
C116        C118   1.688       .  S
C117        C121   1.600       .  S
C117        C125   1.665       .  S
C117        C865   1.766       .  S
C118        C123   1.568       .  S
C118        C126   1.665       .  S
C118        C866   1.782       .  S
C119        N120   1.366       .  A
C119        N300   1.361       .  A
N120        C121   1.373       .  A
C121        N122   1.367       .  A
N122        C299   1.376       .  A
C123        N124   1.358       .  A
C123        N298   1.376       .  A
N124        C295   1.361       .  A
C125        C129   1.568       .  S
C125        C159   1.688       .  S
C125        C873   1.782       .  S
C126        C131   1.600       .  S
C126        C160   1.658       .  S
C126        C874   1.766       .  S
C127        N128   1.361       .  A
C127        N660   1.366       .  A
N128        C129   1.358       .  A
C129        N130   1.376       .  A
N130        C659   1.367       .  A
C131        N132   1.373       .  A
C131        N658   1.367   1_554  A
N132        C655   1.366   1_554  A
O133       Ni141   1.756       .  S
O133        C495   1.261   1_545  A
O134       Ni141   1.969       .  S
O134        C496   1.291       .  A
O135       Ni141   1.970       .  S
O135        C145   1.266       .  A
O136       Ni141   1.925   1_565  S
O136        C498   1.297       .  A
O137       Ni142   1.969       .  S
O137        C146   1.295       .  A
O138       Ni142   1.987       .  S
O138        C497   1.311       .  A
O139       Ni142   1.867       .  S
O139        C144   1.270       .  A
O140       Ni142   1.719       .  S
O140        C143   1.232       .  A
Ni141      Ni494   2.391   1_545  S
Ni142      Ni493   2.391       .  S
C143        O485   1.261       .  A
C143        C861   1.277   1_455  S
C144        O486   1.291       .  A
C145        O490   1.311   1_545  A
C145        C170   1.643       .  S
C146        O488   1.297       .  A
C146        C169   1.666       .  S
O147       Ni155   1.761       .  S
O147        C509   1.243   1_545  A
O148       Ni155   1.890       .  S
O148        C510   1.275   1_545  A
O149       Ni155   1.996       .  S
O149        C511   1.305   1_545  A
O150       Ni155   1.934       .  S
O150        C160   1.280       .  A
O151       Ni156   1.952       .  S
O151        C512   1.298       .  A
O152       Ni156   2.011       .  S
O152        C159   1.296       .  A
O153       Ni156   1.945       .  S
O153        C158   1.284       .  A
O154       Ni156   1.735       .  S
O154        C157   1.249       .  A
Ni155      Ni508   2.404   1_545  S
Ni156      Ni507   2.404       .  S
C157        O499   1.243       .  A
C157        C847   1.275       .  S
C158        O500   1.276       .  A
C159        O501   1.305       .  A
C160        O503   1.298   1_545  A
C161        C165   1.553       .  S
C161        C169   1.650       .  S
C161        C821   1.762   1_455  S
C162        C167   1.601       .  S
C162        C170   1.650       .  S
C162        C822   1.783   1_455  S
C163        N168   1.370   1_556  A
C163        N340   1.355       .  A
N164        C165   1.348       .  A
N164        C339   1.355       .  A
C165        N166   1.374       .  A
N166        C343   1.364       .  A
C167        N168   1.385       .  A
C167        N342   1.364   1_554  A
C169        C173   1.601       .  S
C169        C829   1.783   1_455  S
C170        C175   1.553       .  S
C170        C830   1.762   1_455  S
C171        N172   1.370       .  A
C171        N704   1.355       .  A
N172        C173   1.385       .  A
C173        N174   1.364       .  A
N174        C703   1.375       .  A
C175        N176   1.348       .  A
C175        N702   1.375   1_545  A
N176        C699   1.355   1_545  A
O177       Ni185   1.776       .  S
O178       Ni185   1.893   1_556  S
O178        C188   1.277   1_556  A
O179        C189   1.275       .  A
O180       Ni185   1.987   1_556  S
O180        C190   1.303       .  A
O181        C190   1.307       .  A
O182       Ni186   1.971       .  S
O182        C189   1.301       .  A
O183       Ni186   1.939       .  S
O184       Ni186   1.733       .  S
O184        C187   1.244       .  A
C187        C201   1.278       .  S
C188        C295   1.464       .  S
C189        C258   1.660       .  S
C190        C257   1.694       .  S
O191       Ni199   1.757       .  S
O192       Ni199   1.972       .  S
O193       Ni199   1.922       .  S
O193        C203   1.297       .  A
O194        C204   1.267       .  A
O195       Ni200   1.989       .  S
O195        C204   1.313       .  A
O196        C203   1.297       .  A
O197       Ni200   1.865       .  S
O197        C202   1.269       .  A
O198       Ni200   1.721       .  S
O198        C201   1.234       .  A
C202        C339   1.473       .  S
C203        C205   1.669       .  S
C204        C206   1.641       .  S
C205        C209   1.602       .  S
C205        C213   1.647       .  S
C205        C257   1.782       .  S
C206        C211   1.550       .  S
C206        C214   1.647       .  S
C206        C258   1.763       .  S
C207        C276   1.471       .  S
C207        N208   1.370       .  A
C207        N212   1.353       .  A
N208        C209   1.385       .  A
C209        N210   1.364       .  A
N210        C211   1.375       .  A
C211        N212   1.348       .  A
C213        C219   1.550       .  S
C213        C247   1.641       .  S
C213        C249   1.763       .  S
C214        C217   1.601       .  S
C214        C248   1.670       .  S
C214        C250   1.782       .  S
C215        C320   1.471       .  S
C215        N568   1.370       .  A
C215        N220   1.353       .  A
N216        C567   1.370       .  A
N216        C217   1.385       .  A
C217        N570   1.364       .  A
N218        C569   1.364       .  A
N218        C219   1.375       .  A
C219        N220   1.348       .  A
O221       Ni229   1.776       .  S
O222       Ni229   1.893       .  S
O223       Ni229   1.987       .  S
O223        C585   1.303       .  A
O224        C234   1.275       .  A
O225       Ni230   1.970       .  S
O225        C586   1.301   1_545  A
O226        C233   1.307       .  A
O227       Ni230   1.939       .  S
O227        C584   1.283       .  A
O228       Ni230   1.733       .  S
O228        C583   1.244       .  A
Ni229      Ni406   2.409       .  S
Ni230      Ni405   2.408   1_545  S
C231        O580   1.244       .  A
C231        C597   1.278   1_556  S
C232        O579   1.283       .  A
C232        C303   1.464       .  S
C233        O575   1.303       .  A
C233        C250   1.694       .  S
C234        O577   1.301       .  A
C234        C249   1.660       .  S
O235       Ni243   1.758       .  S
O235        C421   1.260       .  A
O236       Ni243   1.972       .  S
O237        C247   1.267       .  A
O238       Ni243   1.922       .  S
O238        C600   1.297       .  A
O239        C248   1.297       .  A
O240       Ni244   1.989       .  S
O240        C599   1.312   1_545  A
O241       Ni244   1.865       .  S
O241        C598   1.269   1_546  A
O242       Ni244   1.721       .  S
O242        C245   1.234   1_556  A
Ni243      Ni420   2.390       .  S
Ni244      Ni419   2.390   1_546  S
C245        O411   1.260   1_545  A
C245        C583   1.278   1_554  S
C246        O593   1.269   1_554  A
C246        C347   1.473       .  S
C247        O592   1.312       .  A
C248        O590   1.297       .  A
C249        C253   1.600       .  S
C249        C257   1.668       .  S
C250        C255   1.576       .  S
C250        C258   1.668       .  S
C251        C334   1.467       .  S
C251        N252   1.367       .  A
C251        N608   1.363       .  A
N252        C253   1.374       .  A
C253        N254   1.370       .  A
N254        C607   1.376       .  A
C255        N606   1.376   1_545  A
C255        N256   1.358       .  A
N256        C603   1.363   1_545  A
C257        C261   1.576       .  S
C258        C263   1.600       .  S
C259        C290   1.467       .  S
C259        N260   1.363       .  A
C259        N264   1.367       .  A
N260        C261   1.358       .  A
C261        N262   1.376       .  A
N262        C263   1.370       .  A
C263        N264   1.374       .  A
O265       Ni273   1.756       .  S
O265        C275   1.261       .  A
O266       Ni273   1.969       .  S
O266        C276   1.291       .  A
O267       Ni273   1.925       .  S
O267        C277   1.297       .  A
O268       Ni273   1.970       .  S
O268        C278   1.266       .  A
O269       Ni274   1.987       .  S
O269        C278   1.311       .  A
O270       Ni274   1.969       .  S
O270        C277   1.295       .  A
O271       Ni274   1.867       .  S
O271        C276   1.270       .  A
O272       Ni274   1.719       .  S
O272        C275   1.232       .  A
Ni273      Ni274   2.391       .  S
C275        C993   1.277   1_455  S
C277        C338   1.666       .  S
C278        C337   1.643       .  S
O279       Ni287   1.762       .  S
O279        C289   1.243       .  A
O280       Ni287   1.890       .  S
O280        C290   1.275       .  A
O281       Ni287   1.934       .  S
O281        C291   1.280       .  A
O282       Ni287   1.996       .  S
O282        C292   1.305       .  A
O283       Ni288   2.011       .  S
O283        C292   1.296       .  A
O284       Ni288   1.951       .  S
O284        C291   1.298       .  A
O285       Ni288   1.946       .  S
O285        C290   1.285       .  A
O286       Ni288   1.735       .  S
O286        C289   1.249       .  A
Ni287      Ni288   2.404       .  S
C289        C979   1.275       .  S
C291        C293   1.658       .  S
C292        C294   1.688       .  S
C293        C297   1.600       .  S
C293        C301   1.665       .  S
C293       C1041   1.766       .  S
C294        C299   1.568       .  S
C294        C302   1.665       .  S
C294       C1042   1.782       .  S
C295        N296   1.366   1_554  A
N296        C297   1.373       .  A
C297        N298   1.367   1_556  A
C299        N300   1.358       .  A
C301        C305   1.568       .  S
C301        C335   1.688       .  S
C301       C1049   1.782       .  S
C302        C307   1.600       .  S
C302        C336   1.658       .  S
C302       C1050   1.766       .  S
C303        N304   1.361       .  A
C303        N484   1.366   1_556  A
N304        C305   1.358       .  A
C305        N306   1.376       .  A
N306        C483   1.367   1_556  A
C307        N482   1.367       .  A
C307        N308   1.373       .  A
N308        C479   1.366       .  A
O309       Ni317   1.756       .  S
O309        C671   1.261   1_545  A
O310       Ni317   1.969       .  S
O310        C672   1.291       .  A
O311       Ni317   1.970       .  S
O311        C321   1.266       .  A
O312       Ni317   1.925   1_565  S
O312        C674   1.297       .  A
O313       Ni318   1.969       .  S
O313        C322   1.295       .  A
O314       Ni318   1.987       .  S
O314        C673   1.311       .  A
O315       Ni318   1.867       .  S
O315        C320   1.270       .  A
O316       Ni318   1.719       .  S
O316        C319   1.232       .  A
Ni317      Ni670   2.391   1_545  S
Ni318      Ni669   2.391       .  S
C319        O661   1.261       .  A
C319       C1037   1.277   1_455  S
C320        O662   1.291       .  A
C321        O666   1.311   1_545  A
C321        C346   1.643       .  S
C322        O664   1.297       .  A
C322        C345   1.666       .  S
O323       Ni331   1.761       .  S
O323        C685   1.243   1_545  A
O324       Ni331   1.890       .  S
O324        C686   1.275   1_545  A
O325       Ni331   1.996       .  S
O325        C687   1.305   1_545  A
O326       Ni331   1.934       .  S
O326        C336   1.280       .  A
O327       Ni332   1.952       .  S
O327        C688   1.298       .  A
O328       Ni332   2.011       .  S
O328        C335   1.296       .  A
O329       Ni332   1.945       .  S
O329        C334   1.284       .  A
O330       Ni332   1.735       .  S
O330        C333   1.248       .  A
Ni331      Ni684   2.404   1_545  S
Ni332      Ni683   2.404       .  S
C333        O675   1.243       .  A
C333       C1023   1.275       .  S
C334        O676   1.276       .  A
C335        O677   1.305       .  A
C336        O679   1.298   1_545  A
C337        C341   1.553       .  S
C337        C997   1.762   1_455  S
C337        C345   1.650       .  S
C338        C343   1.601       .  S
C338        C998   1.783   1_455  S
C338        C346   1.650       .  S
C339        N344   1.370       .  A
N340        C341   1.348       .  A
C341        N342   1.374       .  A
C343        N344   1.385       .  A
C345        C349   1.601       .  S
C345       C1005   1.783   1_455  S
C346        C351   1.553       .  S
C346       C1006   1.762   1_455  S
C347        N348   1.370   1_554  A
C347        N528   1.355       .  A
N348        C349   1.385       .  A
C349        N350   1.364   1_556  A
N350        C527   1.375       .  A
C351        N526   1.375   1_545  A
C351        N352   1.348       .  A
N352        C523   1.355   1_545  A
O353       Ni361   1.776       .  S
O353        C539   1.254       .  A
O354       Ni361   1.893       .  S
O354        C364   1.277       .  A
O355       Ni537   1.926       .  S
O355        C365   1.275       .  A
O356       Ni361   1.987       .  S
O356        C366   1.303       .  A
O357       Ni538   2.032       .  S
O357        C366   1.307       .  A
O358       Ni362   1.970       .  S
O358        C365   1.301       .  A
O359       Ni362   1.940       .  S
O359        C540   1.283       .  A
O360       Ni362   1.734       .  S
O360        C363   1.244       .  A
Ni361       O531   1.926       .  S
Ni361      Ni538   2.408       .  S
Ni362       O533   2.032   1_554  S
Ni362      Ni537   2.408       .  S
C363        O529   1.254       .  A
C363        C377   1.278   1_554  S
C364        O535   1.283       .  A
C364        C471   1.465       .  S
C365        C434   1.660       .  S
C366        C433   1.694       .  S
O367       Ni375   1.757       .  S
O367        C553   1.260       .  A
O368       Ni375   1.972       .  S
O368        C554   1.292       .  A
O369       Ni375   1.922       .  S
O369        C379   1.297       .  A
O370       Ni551   1.970   1_554  S
O370        C380   1.267       .  A
O371       Ni376   1.989       .  S
O371        C380   1.313       .  A
O372       Ni552   1.974       .  S
O372        C379   1.297       .  A
O373       Ni376   1.865       .  S
O373        C378   1.269   1_554  A
O374       Ni376   1.721       .  S
O374        C377   1.234   1_554  A
Ni375       O546   1.970       .  S
Ni375      Ni552   2.390       .  S
Ni376       O548   1.974   1_554  S
Ni376      Ni551   2.390   1_554  S
C377        O543   1.260       .  A
C378        O544   1.292       .  A
C378        C515   1.473       .  S
C379        C381   1.669       .  S
C380        C382   1.641       .  S
C381        C385   1.601       .  S
C381        C389   1.647       .  S
C381        C433   1.782       .  S
C382        C387   1.550       .  S
C382        C390   1.647       .  S
C382        C434   1.763       .  S
C383        C452   1.471       .  S
C383        N384   1.370       .  A
C383        N388   1.353       .  A
N384        C385   1.385       .  A
C385        N386   1.364       .  A
N386        C387   1.375       .  A
C387        N388   1.348       .  A
C389        C395   1.550       .  S
C389        C423   1.641       .  S
C389        C425   1.763       .  S
C390        C393   1.601       .  S
C390        C424   1.670       .  S
C390        C426   1.782       .  S
C391        C496   1.471       .  S
C391        N396   1.353   1_545  A
N392        C393   1.385       .  A
N394        C395   1.375   1_545  A
C395        N396   1.348       .  A
O397       Ni405   1.776       .  S
O397        C583   1.254   1_565  A
O398       Ni405   1.893   1_554  S
O398        C584   1.277   1_564  A
O399       Ni405   1.987   1_544  S
O400       Ni581   1.926       .  S
O400        C410   1.275       .  A
O401       Ni406   1.970       .  S
O402       Ni582   2.032   1_554  S
O402        C409   1.307       .  A
O403       Ni406   1.939       .  S
O404       Ni406   1.733       .  S
Ni405       O576   1.926       .  S
Ni406       O578   2.032       .  S
C407        O573   1.254   1_545  A
C408        O574   1.277   1_545  A
C408        C479   1.464       .  S
C409        C426   1.694       .  S
C410        C425   1.660       .  S
O411       Ni419   1.757       .  S
O412       Ni419   1.971       .  S
O412        C598   1.292       .  A
O413       Ni595   1.970       .  S
O413        C423   1.267       .  A
O414       Ni419   1.922   1_545  S
O415       Ni596   1.974   1_554  S
O415        C424   1.297       .  A
O416       Ni420   1.989       .  S
O417       Ni420   1.865       .  S
O418       Ni420   1.721       .  S
O418        C421   1.234       .  A
Ni419       O589   1.970   1_554  S
Ni420       O591   1.974       .  S
C422        O588   1.292       .  A
C422        C523   1.473       .  S
C425        C429   1.600       .  S
C425        C433   1.668       .  S
C426        C431   1.576       .  S
C426        C434   1.668       .  S
C427        C510   1.467       .  S
C427        N428   1.367       .  A
N428        C429   1.374       .  A
C429        N430   1.370       .  A
C431        N432   1.358       .  A
C433        C437   1.576       .  S
C434        C439   1.600       .  S
C435        C466   1.467       .  S
C435        N436   1.363       .  A
C435        N440   1.367       .  A
N436        C437   1.358       .  A
C437        N438   1.376       .  A
N438        C439   1.370       .  A
C439        N440   1.374       .  A
O441       Ni449   1.756       .  S
O441        C451   1.261       .  A
O442       Ni449   1.969       .  S
O442        C452   1.291       .  A
O443       Ni449   1.925       .  S
O443        C453   1.297       .  A
O444       Ni449   1.970       .  S
O444        C454   1.266       .  A
O445       Ni450   1.987       .  S
O445        C454   1.311       .  A
O446       Ni450   1.969       .  S
O446        C453   1.295       .  A
O447       Ni450   1.867       .  S
O447        C452   1.270       .  A
O448       Ni450   1.719       .  S
O448        C451   1.232       .  A
Ni449      Ni450   2.391       .  S
C451       C1169   1.277   1_455  S
C453        C514   1.666       .  S
C454        C513   1.643       .  S
O455       Ni463   1.761       .  S
O455        C465   1.243       .  A
O456       Ni463   1.890       .  S
O456        C466   1.275       .  A
O457       Ni463   1.934       .  S
O457        C467   1.280       .  A
O458       Ni463   1.996       .  S
O458        C468   1.305       .  A
O459       Ni464   2.011       .  S
O459        C468   1.296       .  A
O460       Ni464   1.952       .  S
O460        C467   1.298       .  A
O461       Ni464   1.945       .  S
O461        C466   1.285       .  A
O462       Ni464   1.735       .  S
O462        C465   1.249       .  A
Ni463      Ni464   2.404       .  S
C465       C1155   1.275       .  S
C467        C469   1.658       .  S
C468        C470   1.688       .  S
C469        C473   1.600       .  S
C469        C477   1.665       .  S
C469       C1217   1.766       .  S
C470        C475   1.568       .  S
C470        C478   1.665       .  S
C470       C1218   1.782       .  S
C471        N472   1.366       .  A
C471        N652   1.361       .  A
N472        C473   1.373       .  A
C473        N474   1.367       .  A
N474        C651   1.376       .  A
C475        N650   1.376       .  A
C475        N476   1.358       .  A
N476        C647   1.361       .  A
C477        C481   1.568       .  S
C477        C511   1.688       .  S
C477       C1225   1.782       .  S
C478        C483   1.600       .  S
C478        C512   1.658       .  S
C478       C1226   1.766       .  S
C479        N480   1.361   1_545  A
N480        C481   1.358       .  A
C481        N482   1.376   1_565  A
C483        N484   1.373       .  A
O485       Ni493   1.756       .  S
O486       Ni493   1.969       .  S
O487       Ni493   1.970       .  S
O487        C497   1.266       .  A
O488       Ni493   1.925       .  S
O489       Ni494   1.969       .  S
O489        C498   1.295       .  A
O490       Ni494   1.987       .  S
O491       Ni494   1.867       .  S
O491        C496   1.270   1_565  A
O492       Ni494   1.719       .  S
O492        C495   1.232       .  A
C495       C1213   1.277   1_455  S
C497        C522   1.643       .  S
C498        C521   1.666       .  S
O499       Ni507   1.762       .  S
O500       Ni507   1.890       .  S
O501       Ni507   1.996       .  S
O502       Ni507   1.934       .  S
O502        C512   1.280       .  A
O503       Ni508   1.952       .  S
O504       Ni508   2.010       .  S
O504        C511   1.296       .  A
O505       Ni508   1.945       .  S
O505        C510   1.285       .  A
O506       Ni508   1.735       .  S
O506        C509   1.249       .  A
C509       C1199   1.275       .  S
C513        C517   1.553       .  S
C513       C1173   1.762   1_455  S
C513        C521   1.650       .  S
C514        C519   1.601       .  S
C514       C1174   1.783   1_455  S
C514        C522   1.650       .  S
C515        N692   1.355       .  A
C515        N520   1.370   1_556  A
N516        C691   1.355       .  A
N516        C517   1.348       .  A
C517        N518   1.375       .  A
N518        C695   1.364       .  A
C519        N694   1.364   1_554  A
C519        N520   1.385       .  A
C521        C525   1.601       .  S
C521       C1181   1.783   1_455  S
C522        C527   1.553       .  S
C522       C1182   1.762   1_455  S
C523        N524   1.370       .  A
N524        C525   1.385       .  A
C525        N526   1.364       .  A
C527        N528   1.348       .  A
O529       Ni537   1.776       .  S
O530       Ni537   1.893   1_556  S
O530        C540   1.277   1_556  A
O531        C541   1.275       .  A
O532       Ni537   1.987   1_556  S
O532        C542   1.303       .  A
O533        C542   1.307       .  A
O534       Ni538   1.970       .  S
O534        C541   1.301       .  A
O535       Ni538   1.940       .  S
O536       Ni538   1.734       .  S
O536        C539   1.244       .  A
C539        C553   1.278       .  S
C540        C647   1.465       .  S
C541        C610   1.660       .  S
C542        C609   1.694       .  S
O543       Ni551   1.757       .  S
O544       Ni551   1.972       .  S
O545       Ni551   1.922       .  S
O545        C555   1.297       .  A
O546        C556   1.267       .  A
O547       Ni552   1.989       .  S
O547        C556   1.313       .  A
O548        C555   1.297       .  A
O549       Ni552   1.865       .  S
O549        C554   1.269       .  A
O550       Ni552   1.721       .  S
O550        C553   1.234       .  A
C554        C691   1.473       .  S
C555        C557   1.669       .  S
C556        C558   1.641       .  S
C557        C561   1.601       .  S
C557        C565   1.647       .  S
C557        C609   1.782       .  S
C558        C563   1.550       .  S
C558        C566   1.648       .  S
C558        C610   1.763       .  S
C559        C628   1.471       .  S
C559        N560   1.370       .  A
C559        N564   1.353       .  A
N560        C561   1.385       .  A
C561        N562   1.364       .  A
N562        C563   1.375       .  A
C563        N564   1.348       .  A
C565        C571   1.550       .  S
C565        C599   1.641       .  S
C565        C601   1.763       .  S
C566        C569   1.601       .  S
C566        C600   1.670       .  S
C566        C602   1.782       .  S
C567        C672   1.471       .  S
C567        N572   1.353   1_545  A
N568        C569   1.385       .  A
N570        C571   1.375   1_545  A
C571        N572   1.348       .  A
O573       Ni581   1.776       .  S
O574       Ni581   1.893       .  S
O575       Ni581   1.987   1_545  S
O576        C586   1.275       .  A
O577       Ni582   1.970       .  S
O578        C585   1.307       .  A
O579       Ni582   1.939       .  S
O580       Ni582   1.733       .  S
C584        C655   1.464       .  S
C585        C602   1.694       .  S
C586        C601   1.660       .  S
O587       Ni595   1.757       .  S
O588       Ni595   1.971       .  S
O589        C599   1.267       .  A
O590       Ni595   1.922   1_545  S
O591        C600   1.297       .  A
O592       Ni596   1.989       .  S
O593       Ni596   1.865       .  S
O594       Ni596   1.721       .  S
O594        C597   1.234   1_556  A
C598        C699   1.473       .  S
C601        C605   1.600       .  S
C601        C609   1.668       .  S
C602        C607   1.576       .  S
C602        C610   1.668       .  S
C603        C686   1.467       .  S
C603        N604   1.367       .  A
N604        C605   1.374       .  A
C605        N606   1.370       .  A
C607        N608   1.358       .  A
C609        C613   1.576       .  S
C610        C615   1.600       .  S
C611        C642   1.467       .  S
C611        N612   1.363       .  A
C611        N616   1.367       .  A
N612        C613   1.358       .  A
C613        N614   1.376       .  A
N614        C615   1.370       .  A
C615        N616   1.374       .  A
O617       Ni625   1.756       .  S
O617        C627   1.261       .  A
O618       Ni625   1.969       .  S
O618        C628   1.291       .  A
O619       Ni625   1.925       .  S
O619        C629   1.297       .  A
O620       Ni625   1.970       .  S
O620        C630   1.266       .  A
O621       Ni626   1.987       .  S
O621        C630   1.311       .  A
O622       Ni626   1.969       .  S
O622        C629   1.295       .  A
O623       Ni626   1.867       .  S
O623        C628   1.270       .  A
O624       Ni626   1.719       .  S
O624        C627   1.232       .  A
Ni625      Ni626   2.391       .  S
C627       C1345   1.277   1_455  S
C629        C690   1.666       .  S
C630        C689   1.643       .  S
O631       Ni639   1.761       .  S
O631        C641   1.243       .  A
O632       Ni639   1.890       .  S
O632        C642   1.275       .  A
O633       Ni639   1.934       .  S
O633        C643   1.280       .  A
O634       Ni639   1.996       .  S
O634        C644   1.305       .  A
O635       Ni640   2.011       .  S
O635        C644   1.296       .  A
O636       Ni640   1.952       .  S
O636        C643   1.298       .  A
O637       Ni640   1.945       .  S
O637        C642   1.285       .  A
O638       Ni640   1.735       .  S
O638        C641   1.249       .  A
Ni639      Ni640   2.404       .  S
C641       C1331   1.275       .  S
C643        C645   1.658       .  S
C644        C646   1.688       .  S
C645        C649   1.599       .  S
C645        C653   1.665       .  S
C645       C1393   1.766       .  S
C646        C651   1.568       .  S
C646        C654   1.665       .  S
C646       C1394   1.782       .  S
C647        N648   1.366   1_554  A
N648        C649   1.373       .  A
C649        N650   1.367   1_556  A
C651        N652   1.358       .  A
C653        C657   1.568       .  S
C653        C687   1.688       .  S
C653       C1401   1.782       .  S
C654        C659   1.600       .  S
C654        C688   1.658       .  S
C654       C1402   1.766       .  S
C655        N656   1.361   1_545  A
N656        C657   1.358       .  A
C657        N658   1.376   1_565  A
C659        N660   1.373       .  A
O661       Ni669   1.756       .  S
O662       Ni669   1.969       .  S
O663       Ni669   1.970       .  S
O663        C673   1.266       .  A
O664       Ni669   1.925       .  S
O665       Ni670   1.969       .  S
O665        C674   1.295       .  A
O666       Ni670   1.987       .  S
O667       Ni670   1.867       .  S
O667        C672   1.270   1_565  A
O668       Ni670   1.719       .  S
O668        C671   1.232       .  A
C671       C1389   1.277   1_455  S
C673        C698   1.643       .  S
C674        C697   1.666       .  S
O675       Ni683   1.762       .  S
O676       Ni683   1.890       .  S
O677       Ni683   1.996       .  S
O678       Ni683   1.934       .  S
O678        C688   1.280       .  A
O679       Ni684   1.952       .  S
O680       Ni684   2.010       .  S
O680        C687   1.296       .  A
O681       Ni684   1.945       .  S
O681        C686   1.285       .  A
O682       Ni684   1.735       .  S
O682        C685   1.249       .  A
C685       C1375   1.275       .  S
C689        C693   1.553       .  S
C689       C1349   1.762   1_455  S
C689        C697   1.650       .  S
C690        C695   1.601       .  S
C690       C1350   1.783   1_455  S
C690        C698   1.650       .  S
C691        N696   1.370       .  A
N692        C693   1.348       .  A
C693        N694   1.374       .  A
C695        N696   1.385       .  A
C697        C701   1.601       .  S
C697       C1357   1.783   1_455  S
C698        C703   1.553       .  S
C698       C1358   1.762   1_455  S
C699        N700   1.370   1_554  A
N700        C701   1.385       .  A
C701        N702   1.364   1_556  A
C703        N704   1.349       .  A
O705       Ni713   1.767       .  S
O705        C891   1.242       .  A
O706       Ni713   1.888       .  S
O706        C716   1.275       .  A
O707       Ni889   1.935   1_554  S
O707        C717   1.279       .  A
O708       Ni713   2.002       .  S
O708        C718   1.307       .  A
O709       Ni890   2.009       .  S
O709        C718   1.297       .  A
O710       Ni714   1.950       .  S
O710        C717   1.296       .  A
O711       Ni714   1.943       .  S
O711        C892   1.285       .  A
O712       Ni714   1.738       .  S
O712        C715   1.250       .  A
Ni713       O883   1.935       .  S
Ni713      Ni890   2.404       .  S
Ni714       O885   2.009   1_554  S
Ni714      Ni889   2.404   1_554  S
C715        O881   1.242       .  A
C715        C729   1.278   1_554  S
C716        O887   1.285       .  A
C716        C823   1.463       .  S
C717        C786   1.656       .  S
C718        C785   1.693       .  S
O719       Ni727   1.750       .  S
O719        C905   1.255       .  A
O720       Ni727   1.953       .  S
O720        C906   1.287       .  A
O721       Ni727   1.929       .  S
O721        C731   1.296       .  A
O722       Ni903   1.977   1_554  S
O722        C732   1.274       .  A
O723       Ni728   1.994       .  S
O723        C732   1.309       .  A
O724       Ni904   1.954       .  S
O724        C731   1.290       .  A
O725       Ni728   1.880       .  S
O725        C730   1.273   1_554  A
O726       Ni728   1.739   1_556  S
O726        C729   1.232       .  A
Ni727       O898   1.977       .  S
Ni727      Ni904   2.397       .  S
Ni728       O900   1.954   1_554  S
Ni728      Ni903   2.397   1_554  S
C729        O895   1.255       .  A
C730        O896   1.287       .  A
C730        C867   1.466       .  S
C731        C733   1.664       .  S
C732        C734   1.658       .  S
C733        C737   1.601       .  S
C733        C741   1.657       .  S
C733        C785   1.782       .  S
C734        C739   1.555       .  S
C734        C742   1.657       .  S
C734        C786   1.764       .  S
C735        C804   1.464       .  S
C735        N736   1.368       .  A
C735        N740   1.356       .  A
N736        C737   1.380       .  A
C737        N738   1.365       .  A
N738        C739   1.376       .  A
C739        N740   1.351       .  A
C741        C747   1.556       .  S
C741        C775   1.658       .  S
C741        C777   1.764       .  S
C742        C745   1.601       .  S
C742        C776   1.664       .  S
C742        C778   1.782       .  S
C743        C848   1.464       .  S
C743       N1096   1.367       .  A
C743        N748   1.356       .  A
N744       C1095   1.367       .  A
N744        C745   1.380       .  A
C745       N1098   1.365       .  A
N746       C1097   1.365       .  A
N746        C747   1.376       .  A
C747        N748   1.351       .  A
O749       Ni757   1.767       .  S
O749        C935   1.243       .  A
O750       Ni757   1.888   1_554  S
O750        C936   1.275   1_554  A
O751       Ni757   2.002   1_554  S
O751       C1113   1.307       .  A
O752       Ni933   1.935       .  S
O752        C762   1.279       .  A
O753       Ni758   1.950       .  S
O753       C1114   1.296   1_545  A
O754       Ni934   2.009   1_554  S
O754        C761   1.297       .  A
O755       Ni758   1.943       .  S
O755       C1112   1.284       .  A
O756       Ni758   1.737       .  S
O756       C1111   1.250       .  A
Ni757       O928   1.935       .  S
Ni757     Ni1286   2.404       .  S
Ni758       O930   2.009       .  S
Ni758     Ni1285   2.404   1_545  S
C759        O925   1.243       .  A
C759       O1108   1.250       .  A
C759       C1125   1.278       .  S
C760        O926   1.275       .  A
C760       O1107   1.284       .  A
C760        C831   1.463       .  S
C761       O1103   1.307   1_545  A
C761        C778   1.693       .  S
C762       O1105   1.296       .  A
C762        C777   1.656       .  S
O763       Ni771   1.750       .  S
O763       C1301   1.255       .  A
O764       Ni771   1.953       .  S
O764        C950   1.287       .  A
O765       Ni947   1.977       .  S
O765        C775   1.274       .  A
O766       Ni771   1.929       .  S
O766       C1128   1.296       .  A
O767       Ni948   1.954   1_554  S
O767        C776   1.290       .  A
O768       Ni772   1.994       .  S
O768       C1127   1.309   1_545  A
O769       Ni772   1.880       .  S
O769       C1126   1.273   1_545  A
O770       Ni772   1.739       .  S
O770        C773   1.232       .  A
Ni771       O941   1.977   1_554  S
Ni771     Ni1300   2.397   1_554  S
Ni772       O943   1.954       .  S
Ni772     Ni1299   2.397   1_545  S
C773       O1291   1.255   1_545  A
C773       C1111   1.278       .  S
C774        O940   1.287       .  A
C774       O1121   1.273       .  A
C774        C875   1.466       .  S
C775       O1120   1.309       .  A
C776       O1118   1.296   1_545  A
C777        C781   1.596       .  S
C777        C785   1.666       .  S
C778        C783   1.570       .  S
C778        C786   1.666       .  S
C779        C862   1.460       .  S
C779        N780   1.364       .  A
C779       N1136   1.363       .  A
N780        C781   1.369       .  A
C781        N782   1.367       .  A
N782       C1135   1.376       .  A
C783       N1134   1.376   1_545  A
C783        N784   1.359       .  A
N784       C1131   1.363   1_545  A
C785        C789   1.570       .  S
C786        C791   1.596       .  S
C787        C818   1.460       .  S
C787        N788   1.363       .  A
C787        N792   1.364       .  A
N788        C789   1.359       .  A
C789        N790   1.376       .  A
N790        C791   1.367       .  A
C791        N792   1.369       .  A
O793       Ni801   1.746       .  S
O793        C803   1.256       .  A
O794       Ni801   1.956       .  S
O794        C804   1.287       .  A
O795       Ni801   1.929       .  S
O795        C805   1.297       .  A
O796       Ni801   1.979       .  S
O796        C806   1.274       .  A
O797       Ni802   1.994       .  S
O797        C806   1.309       .  A
O798       Ni802   1.957       .  S
O798        C805   1.291       .  A
O799       Ni802   1.875       .  S
O799        C804   1.272       .  A
O800       Ni802   1.731       .  S
O800        C803   1.234       .  A
Ni801      Ni802   2.397       .  S
C805        C866   1.667       .  S
C806        C865   1.657       .  S
O807       Ni815   1.773       .  S
O807        C817   1.251       .  A
O808       Ni815   1.889       .  S
O808        C818   1.275       .  A
O809       Ni815   1.929       .  S
O809        C819   1.275       .  A
O810       Ni815   1.993       .  S
O810        C820   1.304       .  A
O811       Ni816   2.027       .  S
O811        C820   1.306       .  A
O812       Ni816   1.970       .  S
O812        C819   1.299       .  A
O813       Ni816   1.939       .  S
O813        C818   1.283       .  A
O814       Ni816   1.732       .  S
O814        C817   1.246       .  A
Ni815      Ni816   2.407       .  S
C819        C821   1.660       .  S
C820        C822   1.697       .  S
C821        C825   1.596       .  S
C821        C829   1.669       .  S
C822        C827   1.576       .  S
C822        C830   1.668       .  S
C823        N824   1.365       .  A
C823       N1004   1.364       .  A
N824        C825   1.371       .  A
C825        N826   1.369       .  A
N826       C1003   1.376       .  A
C827       N1002   1.376       .  A
C827        N828   1.359       .  A
N828        C999   1.364       .  A
C829        C833   1.576       .  S
C829        C863   1.697       .  S
C830        C835   1.596       .  S
C830        C864   1.660       .  S
C831        N832   1.364       .  A
C831       N1364   1.365       .  A
N832        C833   1.359       .  A
C833        N834   1.376       .  A
N834       C1363   1.369       .  A
C835       N1362   1.369   1_554  A
C835        N836   1.371   1_554  A
N836       C1359   1.365       .  A
O837       Ni845   1.746       .  S
O837       C1199   1.256   1_545  A
O838       Ni845   1.956       .  S
O838       C1200   1.287       .  A
O839       Ni845   1.979       .  S
O839        C849   1.274       .  A
O840       Ni845   1.929   1_565  S
O840       C1202   1.297       .  A
O841       Ni846   1.957       .  S
O841        C850   1.291       .  A
O842       Ni846   1.995       .  S
O842       C1201   1.309       .  A
O843       Ni846   1.875       .  S
O843        C848   1.272       .  A
O844       Ni846   1.731       .  S
O844        C847   1.234       .  A
Ni845     Ni1198   2.397   1_545  S
Ni846     Ni1197   2.396       .  S
C847       O1189   1.256       .  A
C848       O1190   1.287       .  A
C849       O1194   1.309   1_545  A
C849        C874   1.657       .  S
C850       O1192   1.297       .  A
C850        C873   1.667       .  S
O851       Ni859   1.773       .  S
O851       C1213   1.252   1_545  A
O852       Ni859   1.889       .  S
O852       C1214   1.275   1_545  A
O853       Ni859   1.993   1_565  S
O853       C1215   1.304       .  A
O854       Ni859   1.929       .  S
O854        C864   1.275       .  A
O855       Ni860   1.970       .  S
O855       C1216   1.299       .  A
O856       Ni860   2.027       .  S
O856        C863   1.306       .  A
O857       Ni860   1.939       .  S
O857        C862   1.283       .  A
O858       Ni860   1.732       .  S
O858        C861   1.246       .  A
Ni859     Ni1212   2.407   1_545  S
Ni860     Ni1211   2.407       .  S
C861       O1203   1.252       .  A
C862       O1204   1.275       .  A
C863       O1205   1.304       .  A
C864       O1207   1.299   1_545  A
C865        C869   1.552       .  S
C865        C873   1.655       .  S
C866        C871   1.603       .  S
C866        C874   1.655       .  S
C867       N1044   1.355       .  A
C867        N872   1.368   1_556  A
N868       C1043   1.355       .  A
N868        C869   1.351       .  A
C869        N870   1.376       .  A
N870       C1047   1.364       .  A
C871       N1046   1.364   1_554  A
C871        N872   1.381       .  A
C873        C877   1.603       .  S
C874        C879   1.552       .  S
C875        N876   1.368       .  A
C875       N1408   1.355       .  A
N876        C877   1.381       .  A
C877        N878   1.364       .  A
N878       C1407   1.376       .  A
C879       N1406   1.376   1_545  A
C879        N880   1.351       .  A
N880       C1403   1.355   1_545  A
O881       Ni889   1.767   1_554  S
O882       Ni889   1.888       .  S
O882        C892   1.275   1_556  A
O883        C893   1.279       .  A
O884       Ni889   2.002       .  S
O884        C894   1.307       .  A
O885        C894   1.297       .  A
O886       Ni890   1.950       .  S
O886        C893   1.296       .  A
O887       Ni890   1.943       .  S
O888       Ni890   1.738       .  S
O888        C891   1.250       .  A
C891        C905   1.278       .  S
C892        C999   1.463       .  S
C893        C962   1.656       .  S
C894        C961   1.693       .  S
O895       Ni903   1.750       .  S
O896       Ni903   1.953       .  S
O897       Ni903   1.929       .  S
O897        C907   1.296       .  A
O898        C908   1.274       .  A
O899       Ni904   1.994       .  S
O899        C908   1.309       .  A
O900        C907   1.290       .  A
O901       Ni904   1.880       .  S
O901        C906   1.273       .  A
O902       Ni904   1.739       .  S
O902        C905   1.232       .  A
C906       C1043   1.466       .  S
C907        C909   1.664       .  S
C908        C910   1.658       .  S
C909        C913   1.601       .  S
C909        C917   1.657       .  S
C909        C961   1.782       .  S
C910        C915   1.555       .  S
C910        C918   1.657       .  S
C910        C962   1.764       .  S
C911        C980   1.464       .  S
C911        N912   1.368       .  A
C911        N916   1.356       .  A
N912        C913   1.380       .  A
C913        N914   1.365       .  A
N914        C915   1.376       .  A
C915        N916   1.351       .  A
C917        C923   1.556       .  S
C917        C951   1.658       .  S
C917        C953   1.764       .  S
C918        C921   1.601       .  S
C918        C952   1.664       .  S
C918        C954   1.782       .  S
C919       C1024   1.464       .  S
C919       N1272   1.367       .  A
C919        N924   1.356       .  A
N920       C1271   1.367       .  A
N920        C921   1.380       .  A
C921       N1274   1.365       .  A
N922       C1273   1.365       .  A
N922        C923   1.376       .  A
C923        N924   1.351       .  A
O925       Ni933   1.767       .  S
O926       Ni933   1.888       .  S
O927       Ni933   2.002       .  S
O927       C1289   1.307       .  A
O928        C938   1.279       .  A
O929       Ni934   1.950       .  S
O929       C1290   1.296   1_545  A
O930        C937   1.297       .  A
O931       Ni934   1.943       .  S
O931       C1288   1.284       .  A
O932       Ni934   1.737       .  S
O932       C1287   1.250       .  A
Ni933     Ni1110   2.404       .  S
Ni934     Ni1109   2.404   1_545  S
C935       O1284   1.249       .  A
C935       C1301   1.278   1_556  S
C936       O1283   1.284       .  A
C936       C1007   1.463       .  S
C937       O1279   1.307   1_545  A
C937        C954   1.693       .  S
C938       O1281   1.296       .  A
C938        C953   1.656       .  S
O939       Ni947   1.750       .  S
O939       C1125   1.255       .  A
O940       Ni947   1.953       .  S
O941        C951   1.274       .  A
O942       Ni947   1.929       .  S
O942       C1304   1.296       .  A
O943        C952   1.290       .  A
O944       Ni948   1.994       .  S
O944       C1303   1.309   1_545  A
O945       Ni948   1.880       .  S
O945       C1302   1.273   1_546  A
O946       Ni948   1.739       .  S
O946        C949   1.232   1_556  A
Ni947     Ni1124   2.397       .  S
Ni948     Ni1123   2.397   1_546  S
C949       O1115   1.255   1_545  A
C949       C1287   1.278   1_554  S
C950       O1297   1.273   1_554  A
C950       C1051   1.466       .  S
C951       O1296   1.309       .  A
C952       O1294   1.296   1_545  A
C953        C957   1.596       .  S
C953        C961   1.666       .  S
C954        C959   1.570       .  S
C954        C962   1.666       .  S
C955       C1038   1.460       .  S
C955        N956   1.364       .  A
C955       N1312   1.363       .  A
N956        C957   1.369       .  A
C957        N958   1.367       .  A
N958       C1311   1.376       .  A
C959       N1310   1.376   1_545  A
C959        N960   1.359       .  A
N960       C1307   1.363   1_545  A
C961        C965   1.570       .  S
C962        C967   1.596       .  S
C963        C994   1.460       .  S
C963        N964   1.363       .  A
C963        N968   1.364       .  A
N964        C965   1.360       .  A
C965        N966   1.376       .  A
N966        C967   1.367       .  A
C967        N968   1.369       .  A
O969       Ni977   1.746       .  S
O969        C979   1.256       .  A
O970       Ni977   1.956       .  S
O970        C980   1.287       .  A
O971       Ni977   1.929       .  S
O971        C981   1.297       .  A
O972       Ni977   1.979       .  S
O972        C982   1.274       .  A
O973       Ni978   1.994       .  S
O973        C982   1.309       .  A
O974       Ni978   1.957       .  S
O974        C981   1.291       .  A
O975       Ni978   1.875       .  S
O975        C980   1.272       .  A
O976       Ni978   1.731       .  S
O976        C979   1.234       .  A
Ni977      Ni978   2.397       .  S
C981       C1042   1.667       .  S
C982       C1041   1.657       .  S
O983       Ni991   1.773       .  S
O983        C993   1.251       .  A
O984       Ni991   1.889       .  S
O984        C994   1.275       .  A
O985       Ni991   1.929       .  S
O985        C995   1.275       .  A
O986       Ni991   1.993       .  S
O986        C996   1.304       .  A
O987       Ni992   2.027       .  S
O987        C996   1.306       .  A
O988       Ni992   1.970       .  S
O988        C995   1.299       .  A
O989       Ni992   1.939       .  S
O989        C994   1.283       .  A
O990       Ni992   1.732       .  S
O990        C993   1.246       .  A
Ni991      Ni992   2.407       .  S
C995        C997   1.660       .  S
C996        C998   1.697       .  S
C997       C1001   1.596       .  S
C997       C1005   1.669       .  S
C998       C1003   1.576       .  S
C998       C1006   1.668       .  S
C999       N1000   1.365   1_554  A
N1000      C1001   1.371       .  A
C1001      N1002   1.369   1_556  A
C1003      N1004   1.359       .  A
C1005      C1009   1.576       .  S
C1005      C1039   1.697       .  S
C1006      C1011   1.596       .  S
C1006      C1040   1.660       .  S
C1007      N1008   1.364       .  A
C1007      N1188   1.365       .  A
N1008      C1009   1.359       .  A
C1009      N1010   1.376       .  A
N1010      C1187   1.369   1_556  A
C1011      N1186   1.369       .  A
C1011      N1012   1.371       .  A
N1012      C1183   1.365       .  A
O1013     Ni1021   1.746       .  S
O1013      C1375   1.256   1_545  A
O1014     Ni1021   1.956       .  S
O1014      C1376   1.287       .  A
O1015     Ni1021   1.979       .  S
O1015      C1025   1.274       .  A
O1016     Ni1021   1.929   1_565  S
O1016      C1378   1.297       .  A
O1017     Ni1022   1.957       .  S
O1017      C1026   1.291       .  A
O1018     Ni1022   1.995       .  S
O1018      C1377   1.309       .  A
O1019     Ni1022   1.875       .  S
O1019      C1024   1.272       .  A
O1020     Ni1022   1.731       .  S
O1020      C1023   1.234       .  A
Ni1021    Ni1374   2.397   1_545  S
Ni1022    Ni1373   2.396       .  S
C1023      O1365   1.256       .  A
C1024      O1366   1.287       .  A
C1025      O1370   1.309   1_545  A
C1025      C1050   1.657       .  S
C1026      O1368   1.297       .  A
C1026      C1049   1.667       .  S
O1027     Ni1035   1.773       .  S
O1027      C1389   1.252   1_545  A
O1028     Ni1035   1.889       .  S
O1028      C1390   1.275   1_545  A
O1029     Ni1035   1.993   1_565  S
O1029      C1391   1.304       .  A
O1030     Ni1035   1.929       .  S
O1030      C1040   1.275       .  A
O1031     Ni1036   1.970       .  S
O1031      C1392   1.299       .  A
O1032     Ni1036   2.027       .  S
O1032      C1039   1.306       .  A
O1033     Ni1036   1.939       .  S
O1033      C1038   1.283       .  A
O1034     Ni1036   1.732       .  S
O1034      C1037   1.246       .  A
Ni1035    Ni1388   2.407   1_545  S
Ni1036    Ni1387   2.407       .  S
C1037      O1379   1.252       .  A
C1038      O1380   1.275       .  A
C1039      O1381   1.304       .  A
C1040      O1383   1.299   1_545  A
C1041      C1045   1.552       .  S
C1041      C1049   1.655       .  S
C1042      C1047   1.603       .  S
C1042      C1050   1.655       .  S
C1043      N1048   1.368       .  A
N1044      C1045   1.351       .  A
C1045      N1046   1.376       .  A
C1047      N1048   1.381       .  A
C1049      C1053   1.603       .  S
C1050      C1055   1.552       .  S
C1051      N1052   1.368   1_554  A
C1051      N1232   1.355       .  A
N1052      C1053   1.381       .  A
C1053      N1054   1.364   1_556  A
N1054      C1231   1.376       .  A
C1055      N1230   1.376   1_545  A
C1055      N1056   1.351       .  A
N1056      C1227   1.355   1_545  A
O1057     Ni1065   1.767       .  S
O1057      C1243   1.243       .  A
O1058     Ni1065   1.888       .  S
O1058      C1068   1.275       .  A
O1059     Ni1241   1.935   1_554  S
O1059      C1069   1.279       .  A
O1060     Ni1065   2.002       .  S
O1060      C1070   1.307       .  A
O1061     Ni1242   2.009       .  S
O1061      C1070   1.297       .  A
O1062     Ni1066   1.950       .  S
O1062      C1069   1.296       .  A
O1063     Ni1066   1.943       .  S
O1063      C1244   1.284       .  A
O1064     Ni1066   1.737       .  S
O1064      C1067   1.250       .  A
Ni1065     O1235   1.935       .  S
Ni1065    Ni1242   2.404       .  S
Ni1066     O1237   2.009   1_554  S
Ni1066    Ni1241   2.404   1_554  S
C1067      O1233   1.243       .  A
C1067      C1081   1.278   1_554  S
C1068      O1239   1.284       .  A
C1068      C1175   1.463       .  S
C1069      C1138   1.657       .  S
C1070      C1137   1.693       .  S
O1071     Ni1079   1.750       .  S
O1071      C1257   1.255       .  A
O1072     Ni1079   1.953       .  S
O1072      C1258   1.287       .  A
O1073     Ni1079   1.928       .  S
O1073      C1083   1.296       .  A
O1074     Ni1255   1.977   1_554  S
O1074      C1084   1.274       .  A
O1075     Ni1080   1.994       .  S
O1075      C1084   1.309       .  A
O1076     Ni1256   1.954       .  S
O1076      C1083   1.290       .  A
O1077     Ni1080   1.881       .  S
O1077      C1082   1.273   1_554  A
O1078     Ni1080   1.739   1_556  S
O1078      C1081   1.232       .  A
Ni1079     O1250   1.977       .  S
Ni1079    Ni1256   2.397       .  S
Ni1080     O1252   1.954   1_554  S
Ni1080    Ni1255   2.397   1_554  S
C1081      O1247   1.255       .  A
C1082      O1248   1.287       .  A
C1082      C1219   1.466       .  S
C1083      C1085   1.664       .  S
C1084      C1086   1.658       .  S
C1085      C1089   1.601       .  S
C1085      C1093   1.657       .  S
C1085      C1137   1.782       .  S
C1086      C1091   1.556       .  S
C1086      C1094   1.657       .  S
C1086      C1138   1.764       .  S
C1087      C1156   1.465       .  S
C1087      N1088   1.368       .  A
C1087      N1092   1.356       .  A
N1088      C1089   1.380       .  A
C1089      N1090   1.365       .  A
N1090      C1091   1.376       .  A
C1091      N1092   1.351       .  A
C1093      C1099   1.555       .  S
C1093      C1127   1.658       .  S
C1093      C1129   1.764       .  S
C1094      C1097   1.601       .  S
C1094      C1128   1.664       .  S
C1094      C1130   1.782       .  S
C1095      C1200   1.464       .  S
C1095      N1100   1.356   1_545  A
N1096      C1097   1.380       .  A
N1098      C1099   1.376   1_545  A
C1099      N1100   1.351       .  A
O1101     Ni1109   1.766       .  S
O1101      C1287   1.243   1_565  A
O1102     Ni1109   1.888   1_554  S
O1102      C1288   1.275   1_564  A
O1103     Ni1109   2.002   1_554  S
O1104     Ni1285   1.935       .  S
O1104      C1114   1.279       .  A
O1105     Ni1110   1.950       .  S
O1106     Ni1286   2.009   1_554  S
O1106      C1113   1.297       .  A
O1107     Ni1110   1.943       .  S
O1108     Ni1110   1.737       .  S
Ni1109     O1280   1.935       .  S
Ni1110     O1282   2.009       .  S
C1111      O1277   1.243   1_545  A
C1112      O1278   1.275   1_545  A
C1112      C1183   1.463       .  S
C1113      C1130   1.693       .  S
C1114      C1129   1.656       .  S
O1115     Ni1123   1.750       .  S
O1116     Ni1123   1.953       .  S
O1116      C1302   1.287       .  A
O1117     Ni1299   1.977       .  S
O1117      C1127   1.274       .  A
O1118     Ni1123   1.929       .  S
O1119     Ni1300   1.954   1_554  S
O1119      C1128   1.290       .  A
O1120     Ni1124   1.994       .  S
O1121     Ni1124   1.881       .  S
O1122     Ni1124   1.739       .  S
O1122      C1125   1.232       .  A
Ni1123     O1293   1.977   1_554  S
Ni1124     O1295   1.954       .  S
C1126      O1292   1.287       .  A
C1126      C1227   1.466       .  S
C1129      C1133   1.596       .  S
C1129      C1137   1.666       .  S
C1130      C1135   1.570       .  S
C1130      C1138   1.666       .  S
C1131      C1214   1.460       .  S
C1131      N1132   1.364       .  A
N1132      C1133   1.369       .  A
C1133      N1134   1.367       .  A
C1135      N1136   1.359       .  A
C1137      C1141   1.570       .  S
C1138      C1143   1.596       .  S
C1139      C1170   1.460       .  S
C1139      N1140   1.363       .  A
C1139      N1144   1.364       .  A
N1140      C1141   1.360       .  A
C1141      N1142   1.376       .  A
N1142      C1143   1.367       .  A
C1143      N1144   1.369       .  A
O1145     Ni1153   1.746       .  S
O1145      C1155   1.256       .  A
O1146     Ni1153   1.956       .  S
O1146      C1156   1.287       .  A
O1147     Ni1153   1.929       .  S
O1147      C1157   1.297       .  A
O1148     Ni1153   1.979       .  S
O1148      C1158   1.274       .  A
O1149     Ni1154   1.994       .  S
O1149      C1158   1.309       .  A
O1150     Ni1154   1.957       .  S
O1150      C1157   1.291       .  A
O1151     Ni1154   1.875       .  S
O1151      C1156   1.272       .  A
O1152     Ni1154   1.731       .  S
O1152      C1155   1.234       .  A
Ni1153    Ni1154   2.397       .  S
C1157      C1218   1.667       .  S
C1158      C1217   1.657       .  S
O1159     Ni1167   1.773       .  S
O1159      C1169   1.251       .  A
O1160     Ni1167   1.889       .  S
O1160      C1170   1.275       .  A
O1161     Ni1167   1.929       .  S
O1161      C1171   1.275       .  A
O1162     Ni1167   1.994       .  S
O1162      C1172   1.304       .  A
O1163     Ni1168   2.027       .  S
O1163      C1172   1.306       .  A
O1164     Ni1168   1.970       .  S
O1164      C1171   1.299       .  A
O1165     Ni1168   1.939       .  S
O1165      C1170   1.283       .  A
O1166     Ni1168   1.732       .  S
O1166      C1169   1.246       .  A
Ni1167    Ni1168   2.407       .  S
C1171      C1173   1.660       .  S
C1172      C1174   1.697       .  S
C1173      C1177   1.596       .  S
C1173      C1181   1.669       .  S
C1174      C1179   1.576       .  S
C1174      C1182   1.669       .  S
C1175      N1176   1.365       .  A
C1175      N1356   1.364       .  A
N1176      C1177   1.371       .  A
C1177      N1178   1.369       .  A
N1178      C1355   1.376       .  A
C1179      N1354   1.376       .  A
C1179      N1180   1.359       .  A
N1180      C1351   1.364       .  A
C1181      C1185   1.576       .  S
C1181      C1215   1.697       .  S
C1182      C1187   1.596       .  S
C1182      C1216   1.660       .  S
C1183      N1184   1.364   1_545  A
N1184      C1185   1.359       .  A
C1185      N1186   1.376   1_565  A
C1187      N1188   1.371   1_554  A
O1189     Ni1197   1.747       .  S
O1190     Ni1197   1.956       .  S
O1191     Ni1197   1.979       .  S
O1191      C1201   1.274       .  A
O1192     Ni1197   1.928       .  S
O1193     Ni1198   1.957       .  S
O1193      C1202   1.291       .  A
O1194     Ni1198   1.994       .  S
O1195     Ni1198   1.875       .  S
O1195      C1200   1.272   1_565  A
O1196     Ni1198   1.731       .  S
O1196      C1199   1.234       .  A
C1201      C1226   1.657       .  S
C1202      C1225   1.667       .  S
O1203     Ni1211   1.773       .  S
O1204     Ni1211   1.889       .  S
O1205     Ni1211   1.993       .  S
O1206     Ni1211   1.929       .  S
O1206      C1216   1.275       .  A
O1207     Ni1212   1.970       .  S
O1208     Ni1212   2.027       .  S
O1208      C1215   1.306       .  A
O1209     Ni1212   1.939       .  S
O1209      C1214   1.283       .  A
O1210     Ni1212   1.732       .  S
O1210      C1213   1.246       .  A
C1217      C1221   1.552       .  S
C1217      C1225   1.655       .  S
C1218      C1223   1.603       .  S
C1218      C1226   1.655       .  S
C1219      N1396   1.355       .  A
C1219      N1224   1.368   1_556  A
N1220      C1395   1.355       .  A
N1220      C1221   1.351       .  A
C1221      N1222   1.376       .  A
N1222      C1399   1.364       .  A
C1223      N1398   1.364   1_554  A
C1223      N1224   1.381       .  A
C1225      C1229   1.603       .  S
C1226      C1231   1.552       .  S
C1227      N1228   1.368       .  A
N1228      C1229   1.381       .  A
C1229      N1230   1.364       .  A
C1231      N1232   1.351       .  A
O1233     Ni1241   1.767   1_554  S
O1234     Ni1241   1.888       .  S
O1234      C1244   1.275   1_556  A
O1235      C1245   1.279       .  A
O1236     Ni1241   2.002       .  S
O1236      C1246   1.307       .  A
O1237      C1246   1.297       .  A
O1238     Ni1242   1.950       .  S
O1238      C1245   1.296       .  A
O1239     Ni1242   1.943       .  S
O1240     Ni1242   1.737       .  S
O1240      C1243   1.250       .  A
C1243      C1257   1.278       .  S
C1244      C1351   1.463       .  S
C1245      C1314   1.657       .  S
C1246      C1313   1.693       .  S
O1247     Ni1255   1.750       .  S
O1248     Ni1255   1.953       .  S
O1249     Ni1255   1.928       .  S
O1249      C1259   1.296       .  A
O1250      C1260   1.274       .  A
O1251     Ni1256   1.994       .  S
O1251      C1260   1.309       .  A
O1252      C1259   1.290       .  A
O1253     Ni1256   1.881       .  S
O1253      C1258   1.273       .  A
O1254     Ni1256   1.739       .  S
O1254      C1257   1.232       .  A
C1258      C1395   1.466       .  S
C1259      C1261   1.664       .  S
C1260      C1262   1.658       .  S
C1261      C1265   1.601       .  S
C1261      C1269   1.657       .  S
C1261      C1313   1.782       .  S
C1262      C1267   1.556       .  S
C1262      C1270   1.657       .  S
C1262      C1314   1.764       .  S
C1263      C1332   1.465       .  S
C1263      N1264   1.368       .  A
C1263      N1268   1.356       .  A
N1264      C1265   1.380       .  A
C1265      N1266   1.365       .  A
N1266      C1267   1.376       .  A
C1267      N1268   1.351       .  A
C1269      C1275   1.555       .  S
C1269      C1303   1.658       .  S
C1269      C1305   1.764       .  S
C1270      C1273   1.601       .  S
C1270      C1304   1.664       .  S
C1270      C1306   1.782       .  S
C1271      C1376   1.464       .  S
C1271      N1276   1.356   1_545  A
N1272      C1273   1.379       .  A
N1274      C1275   1.376   1_545  A
C1275      N1276   1.351       .  A
O1277     Ni1285   1.766       .  S
O1278     Ni1285   1.888       .  S
O1279     Ni1285   2.002       .  S
O1280      C1290   1.279       .  A
O1281     Ni1286   1.950       .  S
O1282      C1289   1.297       .  A
O1283     Ni1286   1.943       .  S
O1284     Ni1286   1.737       .  S
C1288      C1359   1.463       .  S
C1289      C1306   1.693       .  S
C1290      C1305   1.656       .  S
O1291     Ni1299   1.750       .  S
O1292     Ni1299   1.953       .  S
O1293      C1303   1.274       .  A
O1294     Ni1299   1.929       .  S
O1295      C1304   1.290       .  A
O1296     Ni1300   1.994       .  S
O1297     Ni1300   1.880       .  S
O1298     Ni1300   1.739       .  S
O1298      C1301   1.232   1_556  A
C1302      C1403   1.466       .  S
C1305      C1309   1.596       .  S
C1305      C1313   1.666       .  S
C1306      C1311   1.570       .  S
C1306      C1314   1.666       .  S
C1307      C1390   1.460       .  S
C1307      N1308   1.364       .  A
N1308      C1309   1.369       .  A
C1309      N1310   1.367       .  A
C1311      N1312   1.359       .  A
C1313      C1317   1.570       .  S
C1314      C1319   1.596       .  S
C1315      C1346   1.460       .  S
C1315      N1316   1.363       .  A
C1315      N1320   1.364       .  A
N1316      C1317   1.360       .  A
C1317      N1318   1.376       .  A
N1318      C1319   1.367       .  A
C1319      N1320   1.369       .  A
O1321     Ni1329   1.746       .  S
O1321      C1331   1.256       .  A
O1322     Ni1329   1.956       .  S
O1322      C1332   1.287       .  A
O1323     Ni1329   1.929       .  S
O1323      C1333   1.297       .  A
O1324     Ni1329   1.979       .  S
O1324      C1334   1.274       .  A
O1325     Ni1330   1.994       .  S
O1325      C1334   1.309       .  A
O1326     Ni1330   1.957       .  S
O1326      C1333   1.291       .  A
O1327     Ni1330   1.875       .  S
O1327      C1332   1.272       .  A
O1328     Ni1330   1.731       .  S
O1328      C1331   1.234       .  A
Ni1329    Ni1330   2.397       .  S
C1333      C1394   1.667       .  S
C1334      C1393   1.657       .  S
O1335     Ni1343   1.773       .  S
O1335      C1345   1.251       .  A
O1336     Ni1343   1.889       .  S
O1336      C1346   1.275       .  A
O1337     Ni1343   1.929       .  S
O1337      C1347   1.275       .  A
O1338     Ni1343   1.994       .  S
O1338      C1348   1.304       .  A
O1339     Ni1344   2.027       .  S
O1339      C1348   1.306       .  A
O1340     Ni1344   1.970       .  S
O1340      C1347   1.299       .  A
O1341     Ni1344   1.939       .  S
O1341      C1346   1.283       .  A
O1342     Ni1344   1.732       .  S
O1342      C1345   1.246       .  A
Ni1343    Ni1344   2.407       .  S
C1347      C1349   1.660       .  S
C1348      C1350   1.697       .  S
C1349      C1353   1.596       .  S
C1349      C1357   1.669       .  S
C1350      C1355   1.576       .  S
C1350      C1358   1.669       .  S
C1351      N1352   1.365   1_554  A
N1352      C1353   1.371       .  A
C1353      N1354   1.369   1_556  A
C1355      N1356   1.359       .  A
C1357      C1361   1.576       .  S
C1357      C1391   1.697       .  S
C1358      C1363   1.596       .  S
C1358      C1392   1.660       .  S
C1359      N1360   1.364   1_545  A
N1360      C1361   1.359       .  A
C1361      N1362   1.376   1_565  A
C1363      N1364   1.371       .  A
O1365     Ni1373   1.747       .  S
O1366     Ni1373   1.956       .  S
O1367     Ni1373   1.979       .  S
O1367      C1377   1.274       .  A
O1368     Ni1373   1.928       .  S
O1369     Ni1374   1.957       .  S
O1369      C1378   1.291       .  A
O1370     Ni1374   1.994       .  S
O1371     Ni1374   1.875       .  S
O1371      C1376   1.272   1_565  A
O1372     Ni1374   1.731       .  S
O1372      C1375   1.234       .  A
C1377      C1402   1.657       .  S
C1378      C1401   1.667       .  S
O1379     Ni1387   1.773       .  S
O1380     Ni1387   1.889       .  S
O1381     Ni1387   1.993       .  S
O1382     Ni1387   1.929       .  S
O1382      C1392   1.275       .  A
O1383     Ni1388   1.970       .  S
O1384     Ni1388   2.027       .  S
O1384      C1391   1.306       .  A
O1385     Ni1388   1.939       .  S
O1385      C1390   1.283       .  A
O1386     Ni1388   1.732       .  S
O1386      C1389   1.246       .  A
C1393      C1397   1.552       .  S
C1393      C1401   1.655       .  S
C1394      C1399   1.603       .  S
C1394      C1402   1.655       .  S
C1395      N1400   1.368       .  A
N1396      C1397   1.351       .  A
C1397      N1398   1.376       .  A
C1399      N1400   1.381       .  A
C1401      C1405   1.603       .  S
C1402      C1407   1.552       .  S
C1403      N1404   1.368   1_554  A
N1404      C1405   1.381       .  A
C1405      N1406   1.364   1_556  A
C1407      N1408   1.351       .  A
