geometry optimzed in LAMMPS
_audit_creation_date              2020-12-01 
_audit_creation_method            'lammps2cif' 
_symmetry_space_group_name_H-M    'P1' 
_symmetry_Int_Tables_number       1 
_symmetry_cell_setting            triclinic 
loop_ 
_symmetry_equiv_pos_as_xyz 
  x,y,z 
_cell_length_a                    43.44223803 
_cell_length_b                    54.16578225327939 
_cell_length_c                    26.826121212641322 
_cell_angle_alpha                 87.94115951740781 
_cell_angle_beta                  89.79767221464553 
_cell_angle_gamma                 89.73017397665161 
loop_ 
_atom_site_label 
_atom_site_type_symbol 
_atom_site_fract_x 
_atom_site_fract_y 
_atom_site_fract_z 
_atom_site_charge 
O1          O  0.84665911  0.15648019  0.63950321    -0.57500
C2          C  0.86612998  0.15150738  0.79319176     0.75100
O3          O  0.76789179  0.16048147  0.74573473    -0.58700
C4          C  0.82436515  0.15048564  0.61200350     0.75100
C5          C  0.81295396  0.09329383  0.72307876     0.77500
Cd6        Cd  0.81933572  0.14573400  0.71879060     1.37500
O7          O  0.87088632  0.15802179  0.74794675    -0.57500
O8          O  0.83474770  0.10433108  0.70043368    -0.56300
C9          C  0.77365217  0.18311741  0.73650616     0.77500
O10         O  0.79355249  0.10668598  0.74519677    -0.58700
O11         O  0.83985028  0.14278206  0.80354334    -0.57100
O12         O  0.80021561  0.14299081  0.63420129    -0.57100
O13         O  0.80046233  0.18811787  0.72070040    -0.56300
O14         O  0.88441506  0.84383672  0.74989037    -0.57500
C15         C  0.83948060  0.85445700  0.61225369     0.75100
O16         O  0.77935232  0.84170560  0.73307977    -0.58700
C17         C  0.87888470  0.84801504  0.79532777     0.75100
C18         C  0.82405084  0.90801730  0.73199736     0.77500
Cd19       Cd  0.83248114  0.85615557  0.71953193     1.37500
O20         O  0.85876835  0.84364388  0.64100991    -0.57500
O21         O  0.84938373  0.89868490  0.71852978    -0.56300
C22         C  0.78629109  0.81903433  0.73794269     0.77500
O23         O  0.80216719  0.89310488  0.74116369    -0.58700
O24         O  0.81794642  0.86592546  0.63322493    -0.57100
O25         O  0.85188179  0.85530527  0.80514238    -0.57100
O26         O  0.81464305  0.81371641  0.73645257    -0.56300
O27         O  0.04431807  0.15373268  0.64097362    -0.57500
C28         C  0.02583915  0.14907189  0.79329003     0.75100
O29         O  0.09945674  0.10204526  0.74356943    -0.58700
C30         C  0.06546718  0.14635765  0.61233910     0.75100
C31         C  0.11831622  0.17662523  0.74449318     0.77500
Cd32       Cd  0.07229668  0.14081833  0.71940255     1.37500
O33         O  0.02167724  0.15537040  0.74780478    -0.57500
O34         O  0.09024237  0.18218238  0.73863789    -0.56300
C35         C  0.07863076  0.08792788  0.72813767     0.77500
O36         O  0.12550723  0.15421852  0.73866699    -0.58700
O37         O  0.05134058  0.13891308  0.80418814    -0.57100
O38         O  0.08936446  0.13772389  0.63342810    -0.57100
O39         O  0.05474740  0.09833723  0.71031656    -0.56300
O40         O  0.05640907  0.84314826  0.64611220    -0.57500
C41         C  0.03937123  0.84183510  0.80061779     0.75100
O42         O  0.13808675  0.83548340  0.75390836    -0.58700
C43         C  0.07971216  0.84361832  0.61757814     0.75100
C44         C  0.09038184  0.90203010  0.73268806     0.77500
Cd45       Cd  0.08612769  0.84924405  0.72503809     1.37500
O46         O  0.03553297  0.83442560  0.75671382    -0.57500
O47         O  0.06593462  0.89099389  0.72158968    -0.56300
C48         C  0.13168536  0.81264652  0.75593620     0.77500
O49         O  0.11418842  0.88864617  0.73894735    -0.58700
O50         O  0.06518180  0.85136269  0.80970754    -0.57100
O51         O  0.10542776  0.84634788  0.63857437    -0.57100
O52         O  0.10432004  0.80706194  0.74491686    -0.56300
O53         O  0.84487710  0.16345098  0.20595203    -0.57500
C54         C  0.86625416  0.15409314  0.05133006     0.75100
O55         O  0.79318025  0.10735078  0.11301631    -0.58700
C56         C  0.82895655  0.14992329  0.23562936     0.75100
C57         C  0.77221525  0.18136457  0.10684707     0.77500
Cd58       Cd  0.82071865  0.14638517  0.12873067     1.37500
O59         O  0.87127947  0.16005885  0.09591329    -0.57500
O60         O  0.76622031  0.15879345  0.11593396    -0.56300
C61         C  0.81700376  0.09397064  0.11948828     0.77500
O62         O  0.80033197  0.18721145  0.10607693    -0.58700
O63         O  0.83990222  0.14538165  0.04263639    -0.57100
O64         O  0.81040191  0.13544192  0.21565707    -0.57100
O65         O  0.84169088  0.10502233  0.12961658    -0.56300
O66         O  0.85967714  0.84650705  0.20830621    -0.57500
C67         C  0.87647239  0.84891926  0.05370899     0.75100
O68         O  0.77843839  0.84024347  0.10847415    -0.58700
C69         C  0.83658599  0.84945909  0.23660062     0.75100
C70         C  0.82323923  0.90799711  0.12337556     0.77500
Cd71       Cd  0.83038684  0.85532930  0.12968954     1.37500
O72         O  0.88108070  0.84211311  0.09882064    -0.57500
O73         O  0.84608466  0.89732315  0.14389848    -0.56300
C74         C  0.78632228  0.81766134  0.10841026     0.77500
O75         O  0.80309380  0.89417337  0.10485269    -0.58700
O76         O  0.85037619  0.85827818  0.04375273    -0.57100
O77         O  0.81122657  0.85422052  0.21522611    -0.57100
O78         O  0.81427973  0.81287779  0.11781889    -0.56300
O79         O  0.04073385  0.15079059  0.20730924    -0.57500
C80         C  0.02630548  0.15607901  0.05019905     0.75100
O81         O  0.12051885  0.16421617  0.09696771    -0.58700
C82         C  0.06421711  0.15186393  0.23510867     0.75100
C83         C  0.08147977  0.09498908  0.12227143     0.77500
Cd84       Cd  0.07126775  0.14766306  0.12799382     1.37500
O85         O  0.02092593  0.16173471  0.09495223    -0.57500
O86         O  0.05510450  0.10489245  0.12365554    -0.56300
C87         C  0.11350864  0.18665529  0.10331844     0.77500
O88         O  0.10421465  0.10956160  0.12335286    -0.58700
O89         O  0.05288818  0.14759825  0.04138028    -0.57100
O90         O  0.09000525  0.15139328  0.21323291    -0.57100
O91         O  0.08658804  0.19091501  0.11912087    -0.56300
O92         O  0.05516134  0.84260851  0.21238206    -0.57500
C93         C  0.03632716  0.84770137  0.05744456     0.75100
O94         O  0.10786807  0.89523619  0.10856700    -0.58700
C95         C  0.07774369  0.84755048  0.24015040     0.75100
C96         C  0.12995459  0.81949059  0.11117479     0.77500
Cd97       Cd  0.08251748  0.85528554  0.13283692     1.37500
O98         O  0.03146729  0.84174116  0.10297240    -0.57500
O99         O  0.10195726  0.81360689  0.11666198    -0.56300
C100        C  0.08688716  0.90856550  0.12686515     0.77500
O101        O  0.13614749  0.84223335  0.11414839    -0.58700
O102        O  0.06248198  0.85674187  0.04706441    -0.57100
O103        O  0.10172388  0.85538869  0.21809080    -0.57100
O104        O  0.06432743  0.89720541  0.14667415    -0.56300
N105        N  0.95668943  0.84369567  0.00356620    -0.36300
N106        N  0.91046999  0.84540628  0.92521482    -0.56800
N107        N  0.95835948  0.84077131  0.85015751    -0.36300
N108        N  0.00456607  0.84214836  0.92846692    -0.56800
C109        C  0.93147214  0.85181370  0.02784799     0.27300
C110        C  0.98156151  0.85089055  0.02951531     0.27300
C111        C  0.93410623  0.84916055  0.82271496     0.27300
C112        C  0.98420988  0.84692933  0.82439941     0.27300
C113        C  0.89250323  0.84082033  0.96575653     0.35900
C114        C  0.89348962  0.83986707  0.88498187     0.35900
C115        C  0.02151167  0.83781939  0.97011370     0.35900
C116        C  0.02233496  0.83565312  0.88952953     0.35900
C117        C  0.94038870  0.86456661  0.06928361    -0.21600
C118        C  0.97201110  0.86400700  0.07030813    -0.21600
C119        C  0.94474930  0.86116539  0.77949638    -0.21600
C120        C  0.97635295  0.85967820  0.78048795    -0.21600
C121        C  0.86418278  0.83188691  0.95134182    -0.22600
C122        C  0.86482836  0.83121070  0.90017546    -0.22600
C123        C  0.04995546  0.82806573  0.95765632    -0.22600
C124        C  0.05046802  0.82667340  0.90658574    -0.22600
C125        C  0.90074142  0.84668185  0.01487732    -0.18000
C126        C  0.01246019  0.84484309  0.01832043    -0.18000
C127        C  0.01454305  0.84050452  0.83896493    -0.18000
C128        C  0.90277813  0.84504349  0.83505663    -0.18000
H129        H  0.92571285  0.87350622  0.09593882     0.14900
H130        H  0.98624995  0.87246017  0.09789940     0.14900
H131        H  0.93132829  0.87033984  0.75037892     0.14900
H132        H  0.99173743  0.86742179  0.75229006     0.14900
H133        H  0.84498005  0.82650605  0.97505008     0.13200
H134        H  0.84619964  0.82511206  0.87704034     0.13200
H135        H  0.06857002  0.82277551  0.98257439     0.13200
H136        H  0.06959681  0.82019040  0.88458941     0.13200
H137        H  0.95674752  0.83166203  0.97411381     0.26500
H138        H  0.95727388  0.82934583  0.88222721     0.26500
N139        N  0.94615696  0.15940218  0.99782528    -0.36300
N140        N  0.99311835  0.15654838  0.92116996    -0.56800
N141        N  0.94594697  0.15542599  0.84476308    -0.36300
N142        N  0.89897380  0.15534235  0.92179006    -0.56800
C143        C  0.97143691  0.15254993  0.02437080     0.27300
C144        C  0.92133224  0.15170702  0.02471400     0.27300
C145        C  0.97096859  0.14737541  0.81989380     0.27300
C146        C  0.92090469  0.14775776  0.81993617     0.27300
C147        C  0.01076630  0.16258714  0.96030093     0.35900
C148        C  0.01058781  0.16006326  0.87975364     0.35900
C149        C  0.88146309  0.16107480  0.96155529     0.35900
C150        C  0.88141766  0.15980227  0.88089751     0.35900
C151        C  0.96253332  0.14003626  0.06805512    -0.21600
C152        C  0.93095756  0.13952871  0.06828139    -0.21600
C153        C  0.96169779  0.13415900  0.77922699    -0.21600
C154        C  0.93006642  0.13445291  0.77920482    -0.21600
C155        C  0.03938631  0.17058745  0.94351750    -0.22600
C156        C  0.03928735  0.16895063  0.89246048    -0.22600
C157        C  0.85284672  0.16958689  0.94582729    -0.22600
C158        C  0.85283573  0.16883224  0.89470247    -0.22600
C159        C  0.00220531  0.15805516  0.01075624    -0.18000
C160        C  0.89030005  0.15636794  0.01166263    -0.18000
C161        C  0.89015066  0.15359605  0.83208499    -0.18000
C162        C  0.00180002  0.15280450  0.83173869    -0.18000
H163        H  0.97714993  0.13165899  0.09656882     0.14900
H164        H  0.91682143  0.13075749  0.09701625     0.14900
H165        H  0.97612835  0.12512007  0.75237397     0.14900
H166        H  0.91553686  0.12569907  0.75239587     0.14900
H167        H  0.05855630  0.17658854  0.96560672     0.13200
H168        H  0.05835383  0.17342644  0.86773594     0.13200
H169        H  0.83386928  0.17564421  0.96864182     0.13200
H170        H  0.83382334  0.17419421  0.87066895     0.13200
H171        H  0.94578881  0.17077591  0.96562172     0.26500
H172        H  0.94593195  0.16767747  0.87384113     0.26500
O173        O  0.54311661  0.34771209  0.65637828    -0.57500
C174        C  0.52586739  0.34978890  0.80700874     0.75100
O175        O  0.62220363  0.34199796  0.76037445    -0.58700
C176        C  0.56068958  0.35913086  0.62572448     0.75100
C177        C  0.58550075  0.41119557  0.74815175     0.77500
Cd178      Cd  0.57216070  0.35990926  0.73171090     1.37500
O179        O  0.51852660  0.35622342  0.76267603    -0.57500
O180        O  0.55911547  0.40189148  0.75494443    -0.56300
C181        C  0.61641572  0.32037980  0.74648683     0.77500
O182        O  0.60656459  0.39656928  0.73479453    -0.58700
O183        O  0.55438311  0.34739639  0.81556314    -0.57100
O184        O  0.58217196  0.37138111  0.64439431    -0.57100
O185        O  0.59036167  0.31728033  0.72689968    -0.56300
O186        O  0.55003718  0.65722174  0.63846417    -0.57500
C187        C  0.53588546  0.65252768  0.79355730     0.75100
O188        O  0.61139817  0.61036015  0.74096090    -0.58700
C189        C  0.57255601  0.65417975  0.60906699     0.75100
C190        C  0.62683518  0.68477537  0.73299879     0.77500
Cd191      Cd  0.58126802  0.64786647  0.71563035     1.37500
O192        O  0.53026419  0.65975154  0.74897605    -0.57500
O193        O  0.59835804  0.68985881  0.73237931    -0.56300
C194        C  0.59095238  0.59564429  0.72651375     0.77500
O195        O  0.63413453  0.66239577  0.72732613    -0.58700
O196        O  0.56253576  0.64387363  0.80196433    -0.57100
O197        O  0.59809240  0.64891816  0.62926225    -0.57100
O198        O  0.56729906  0.60530645  0.70642848    -0.56300
O199        O  0.35052845  0.33641014  0.65480361    -0.57500
C200        C  0.36806825  0.34176144  0.80582283     0.75100
O201        O  0.29628833  0.38692013  0.76261917    -0.58700
C202        C  0.32862433  0.34198207  0.62520497     0.75100
C203        C  0.27447620  0.31209229  0.75082235     0.77500
Cd204      Cd  0.32099158  0.34856867  0.73050059     1.37500
O205        O  0.37492305  0.34737787  0.76090250    -0.57500
O206        O  0.30272568  0.30650841  0.74729837    -0.56300
C207        C  0.31093274  0.40109706  0.73240179     0.77500
O208        O  0.26759346  0.33482489  0.74570150    -0.58700
O209        O  0.33983171  0.33815827  0.81471622    -0.57100
O210        O  0.30376305  0.34893482  0.64501707    -0.57100
O211        O  0.32954548  0.39085021  0.70339294    -0.56300
O212        O  0.36417008  0.64133548  0.64246891    -0.57500
C213        C  0.37751605  0.64417467  0.79823784     0.75100
O214        O  0.28156728  0.65461623  0.75036498    -0.58700
C215        C  0.34209633  0.64734040  0.61372404     0.75100
C216        C  0.32069671  0.58658625  0.72395926     0.77500
Cd217      Cd  0.33218664  0.63895133  0.72057588     1.37500
O218        O  0.38164915  0.65312463  0.75443363    -0.57500
O219        O  0.34595696  0.59603654  0.70994378    -0.56300
C220        C  0.28904835  0.67724174  0.74687160     0.77500
O221        O  0.29966002  0.60154600  0.73615892    -0.58700
O222        O  0.35249961  0.63285930  0.80616654    -0.57100
O223        O  0.31605681  0.64974343  0.63430813    -0.57100
O224        O  0.31608421  0.68182055  0.73151603    -0.56300
O225        O  0.35385000  0.34400023  0.21987113    -0.57500
C226        C  0.36788658  0.34231877  0.06745272     0.75100
O227        O  0.27245994  0.33895082  0.10851681    -0.58700
C228        C  0.33097213  0.34445683  0.24923114     0.75100
C229        C  0.31257561  0.40405886  0.12655461     0.77500
Cd230      Cd  0.32214906  0.35164537  0.14234423     1.37500
O231        O  0.37534990  0.34807571  0.11119437    -0.57500
O232        O  0.33778134  0.39330830  0.11825891    -0.56300
C233        C  0.27668234  0.31606376  0.11783598     0.77500
O234        O  0.29049972  0.39037183  0.14093263    -0.58700
O235        O  0.33946880  0.33921205  0.05991142    -0.57100
O236        O  0.30500870  0.34790273  0.22911556    -0.57100
O237        O  0.30218475  0.30981002  0.13747282    -0.56300
O238        O  0.36437396  0.65041045  0.20903651    -0.57500
C239        C  0.37789246  0.65035160  0.05682213     0.75100
O240        O  0.30336246  0.60441211  0.11435143    -0.58700
C241        C  0.34179194  0.64844215  0.23896160     0.75100
C242        C  0.28708531  0.68158864  0.11548020     0.77500
Cd243      Cd  0.33232106  0.64256197  0.13410260     1.37500
O244        O  0.38232120  0.65738113  0.10079847    -0.57500
O245        O  0.31572494  0.68564503  0.11559180    -0.56300
C246        C  0.32341008  0.58945993  0.13209607     0.77500
O247        O  0.27910080  0.65920480  0.12178331    -0.58700
O248        O  0.35227786  0.64018011  0.04885638    -0.57100
O249        O  0.31595967  0.64392138  0.21991134    -0.57100
O250        O  0.34724051  0.59906268  0.15003263    -0.56300
O251        O  0.54307250  0.34088392  0.22443156    -0.57500
C252        C  0.52500781  0.34681398  0.06876510     0.75100
O253        O  0.55625494  0.39666915  0.15769765    -0.58700
C254        C  0.56567881  0.34505053  0.25269455     0.75100
C255        C  0.61513543  0.31709140  0.12341338     0.77500
Cd256      Cd  0.57059738  0.35392156  0.14579033     1.37500
O257        O  0.51723614  0.34973557  0.11381535    -0.57500
O258        O  0.58704220  0.31196280  0.13084276    -0.56300
C259        C  0.57966078  0.40656310  0.13747248     0.77500
O260        O  0.62273367  0.33959640  0.12600100    -0.58700
O261        O  0.55362957  0.34674639  0.06018007    -0.57100
O262        O  0.59023438  0.35207311  0.23126661    -0.57100
O263        O  0.59939690  0.39199607  0.11958523    -0.56300
O264        O  0.53431902  0.66212970  0.09556235    -0.57500
C265        C  0.57149583  0.64536679  0.23465205     0.75100
O266        O  0.61083234  0.60523106  0.11996731    -0.58700
C267        C  0.53848096  0.65557774  0.05112594     0.75100
C268        C  0.63051504  0.68099803  0.11109511     0.77500
Cd269      Cd  0.58286375  0.64471829  0.12827659     1.37500
O270        O  0.55197862  0.65445428  0.20405647    -0.57500
O271        O  0.60465421  0.68575666  0.13030984    -0.56300
C272        C  0.58665971  0.59217078  0.12029096     0.77500
O273        O  0.63486049  0.65887645  0.09874285    -0.58700
O274        O  0.59552530  0.63619665  0.21588721    -0.57100
O275        O  0.56415690  0.64560184  0.04171532    -0.57100
O276        O  0.56127304  0.60358191  0.12306519    -0.56300
N277        N  0.44663716  0.34180908  0.01271835    -0.36300
N278        N  0.49479642  0.34226475  0.93769382    -0.56800
N279        N  0.44697460  0.34248173  0.86127574    -0.36300
N280        N  0.39909251  0.33848414  0.93672001    -0.56800
C281        C  0.47188618  0.33588270  0.04002691     0.27300
C282        C  0.42181251  0.33415586  0.03938316     0.27300
C283        C  0.47268759  0.33763653  0.83482097     0.27300
C284        C  0.42261497  0.33507387  0.83445312     0.27300
C285        C  0.51014956  0.35020470  0.97792116     0.35900
C286        C  0.51020259  0.35109753  0.89695318     0.35900
C287        C  0.38246037  0.34540079  0.97664781     0.35900
C288        C  0.38261276  0.34532691  0.89576449     0.35900
C289        C  0.46303014  0.32352415  0.08390739    -0.21600
C290        C  0.43136887  0.32249737  0.08354618    -0.21600
C291        C  0.46469817  0.32629676  0.79119327    -0.21600
C292        C  0.43304536  0.32461944  0.79101205    -0.21600
C293        C  0.53520451  0.36433040  0.96256521    -0.22600
C294        C  0.53522532  0.36490013  0.91136565    -0.22600
C295        C  0.35547378  0.35698634  0.96092855    -0.22600
C296        C  0.35555334  0.35691271  0.90977354    -0.22600
C297        C  0.50198668  0.34398114  0.02801128    -0.18000
C298        C  0.39108318  0.34015030  0.02680055    -0.18000
C299        C  0.39154543  0.34025984  0.84630899    -0.18000
C300        C  0.50246387  0.34580395  0.84722512    -0.18000
H301        H  0.47768307  0.31624975  0.11350384     0.14900
H302        H  0.41706894  0.31437869  0.11282511     0.14900
H303        H  0.47996623  0.32019975  0.76210841     0.14900
H304        H  0.41937888  0.31694960  0.76175383     0.14900
H305        H  0.55136501  0.37392650  0.98542694     0.13200
H306        H  0.55147468  0.37489725  0.88772041     0.13200
H307        H  0.33779635  0.36523915  0.98348935     0.13200
H308        H  0.33799324  0.36516248  0.88596886     0.13200
H309        H  0.44610852  0.35358653  0.98103774     0.26500
H310        H  0.44592927  0.35346859  0.89240894     0.26500
N311        N  0.45658374  0.65175861  0.84952814    -0.36300
N312        N  0.50414291  0.65620070  0.92359578    -0.56800
N313        N  0.45740126  0.65806533  0.00182209    -0.36300
N314        N  0.40997192  0.65055755  0.92720748    -0.56800
C315        C  0.48204669  0.64579107  0.82329857     0.27300
C316        C  0.43215550  0.64246029  0.82546986     0.27300
C317        C  0.48320636  0.65224560  0.02801766     0.27300
C318        C  0.43310586  0.65027241  0.02996097     0.27300
C319        C  0.52111716  0.66059741  0.88189702     0.35900
C320        C  0.52174241  0.66261571  0.96246054     0.35900
C321        C  0.39174803  0.65277234  0.88648544     0.35900
C322        C  0.39228994  0.65635508  0.96670906     0.35900
C323        C  0.47373543  0.63214256  0.78272209    -0.21600
C324        C  0.44221604  0.63005035  0.78409194    -0.21600
C325        C  0.47513009  0.64045205  0.07293710    -0.21600
C326        C  0.44360204  0.63930705  0.07422503    -0.21600
C327        C  0.54942885  0.67034617  0.89429154    -0.22600
C328        C  0.54987457  0.67150532  0.94539475    -0.22600
C329        C  0.36245878  0.66028581  0.90006967    -0.22600
C330        C  0.36282913  0.66265768  0.95087932    -0.22600
C331        C  0.51228995  0.65358309  0.83372717    -0.18000
C332        C  0.40100422  0.64662387  0.83788214    -0.18000
C333        C  0.40172267  0.65322772  0.01693918    -0.18000
C334        C  0.51374855  0.65787599  0.01298339    -0.18000
H335        H  0.48875455  0.62455047  0.75482660     0.14900
H336        H  0.42829115  0.62064612  0.75736881     0.14900
H337        H  0.49025271  0.63286236  0.10159453     0.14900
H338        H  0.43011040  0.63068394  0.10394689     0.14900
H339        H  0.56806714  0.67569132  0.86938092     0.13200
H340        H  0.56888871  0.67787274  0.96741409     0.13200
H341        H  0.34283418  0.66372327  0.87605046     0.13200
H342        H  0.34347998  0.66821793  0.97343082     0.13200
H343        H  0.45560326  0.66405331  0.87847957     0.26500
H344        H  0.45628383  0.66860113  0.96857325     0.26500
C345        C  0.60956627  0.47097619  0.10545846    -0.10500
C346        C  0.58740442  0.48564063  0.12885743     0.06600
C347        C  0.56380058  0.47409257  0.15670136    -0.09300
C348        C  0.56174258  0.44843618  0.15988482    -0.10900
C349        C  0.58323568  0.43368853  0.13527156    -0.00700
C350        C  0.60745900  0.44515287  0.10854707    -0.09800
C351        C  0.58803297  0.51291989  0.12346246     0.06600
H352        H  0.54676775  0.48496949  0.17585010     0.08600
H353        H  0.54304069  0.44014898  0.18129152     0.12000
H354        H  0.62441373  0.43420316  0.08942088     0.12300
H355        H  0.62797185  0.47949276  0.08372707     0.08600
C356        C  0.61538476  0.52606658  0.13037595    -0.10500
C357        C  0.61520676  0.55192492  0.12806344    -0.09800
C358        C  0.58767930  0.56498369  0.11878697    -0.00700
C359        C  0.56053748  0.55178163  0.11057526    -0.10900
C360        C  0.56073028  0.52602851  0.11281890    -0.09300
H361        H  0.63667668  0.51635427  0.13888289     0.08600
H362        H  0.63640669  0.56168731  0.13475908     0.12300
H363        H  0.53902182  0.56136830  0.10303527     0.12000
H364        H  0.53942852  0.51630771  0.10659450     0.08600
C365        C  0.34110686  0.52090984  0.14369480    -0.10500
C366        C  0.31326870  0.51038142  0.12872635     0.06600
C367        C  0.28828426  0.52600678  0.11671023    -0.09300
C368        C  0.29145414  0.55172633  0.11793859    -0.10900
C369        C  0.31952811  0.56225955  0.13188466    -0.00700
C370        C  0.34416418  0.54652999  0.14545715    -0.09800
C371        C  0.31100018  0.48323475  0.12410077     0.06600
H372        H  0.26660906  0.51835596  0.10497035     0.08600
H373        H  0.27201319  0.56337801  0.10763193     0.12000
H374        H  0.36602370  0.55403973  0.15671396     0.12300
H375        H  0.36060714  0.50927414  0.15387790     0.08600
C376        C  0.33484690  0.47039366  0.10075439    -0.10500
C377        C  0.33438772  0.44470898  0.09943670    -0.09800
C378        C  0.31010404  0.43121953  0.12158804    -0.00700
C379        C  0.28539067  0.44402699  0.14280182    -0.10900
C380        C  0.28582165  0.46988960  0.14399007    -0.09300
H381        H  0.35418092  0.48025680  0.08417824     0.08600
H382        H  0.35360922  0.43535562  0.08237210     0.12300
H383        H  0.26642294  0.43404688  0.16022534     0.12000
H384        H  0.26711507  0.47938659  0.16211001     0.08600
C385        C  0.32599175  0.66708310  0.47965473    -0.10500
C386        C  0.34958022  0.65511723  0.45362170     0.06600
C387        C  0.37238153  0.64217481  0.48120521    -0.09300
C388        C  0.37069418  0.64030476  0.53349962    -0.10900
C389        C  0.34603195  0.65112914  0.55904311    -0.00700
C390        C  0.32405378  0.66487668  0.53156983    -0.09800
C391        C  0.34845910  0.65440936  0.39817860     0.06600
H392        H  0.39073607  0.63260250  0.46235639     0.08600
H393        H  0.38797026  0.62959243  0.55380060     0.12000
H394        H  0.30506069  0.67373279  0.55026303     0.12300
H395        H  0.30848653  0.67772834  0.45974686     0.08600
C396        C  0.31991915  0.65163195  0.37461756    -0.10500
C397        C  0.31807238  0.65004590  0.32308130    -0.09800
C398        C  0.34471367  0.65106945  0.29338831    -0.00700
C399        C  0.37340920  0.65404808  0.31644606    -0.10900
C400        C  0.37528060  0.65562953  0.36851315    -0.09300
H401        H  0.29887075  0.65003282  0.39618904     0.08600
H402        H  0.29561090  0.64769860  0.30655118     0.12300
H403        H  0.39432806  0.65490326  0.29438243     0.12000
H404        H  0.39760831  0.65787800  0.38551993     0.08600
C405        C  0.30890319  0.33305915  0.38417423    -0.10500
C406        C  0.33577760  0.33952830  0.40956351     0.06600
C407        C  0.36218407  0.34589982  0.38143218    -0.09300
C408        C  0.36119858  0.34672542  0.32903652    -0.10900
C409        C  0.33373741  0.34140150  0.30408136    -0.00700
C410        C  0.30781701  0.33421672  0.33224211    -0.09800
C411        C  0.33520080  0.34066908  0.46496003     0.06600
H412        H  0.38321354  0.35105838  0.39984653     0.08600
H413        H  0.38150444  0.35236137  0.30812801     0.12000
H414        H  0.28646683  0.32967184  0.31403514     0.12300
H415        H  0.28841278  0.32738678  0.40454810     0.08600
C416        C  0.30879743  0.34973187  0.48869851    -0.10500
C417        C  0.30688207  0.34987231  0.54049118    -0.09800
C418        C  0.33143778  0.34119793  0.57026658    -0.00700
C419        C  0.35832202  0.33275059  0.54688182    -0.10900
C420        C  0.36019135  0.33248076  0.49459352    -0.09300
H421        H  0.28947363  0.35685529  0.46713534     0.08600
H422        H  0.28604307  0.35693183  0.55721361     0.12300
H423        H  0.37772838  0.32619497  0.56893860     0.12000
H424        H  0.38085464  0.32538766  0.47743032     0.08600
C425        C  0.31825952  0.46741105  0.68732675    -0.10500
C426        C  0.30690035  0.48032195  0.72801033     0.06600
C427        C  0.29422609  0.46685938  0.76893861    -0.09300
C428        C  0.29434394  0.44094514  0.77002021    -0.10900
C429        C  0.30730622  0.42820814  0.73032895    -0.00700
C430        C  0.31862444  0.44171223  0.68860416    -0.09800
C431        C  0.31001815  0.50760681  0.72822736     0.06600
H432        H  0.28537022  0.47631448  0.80088338     0.08600
H433        H  0.28542944  0.43092012  0.80256668     0.12000
H434        H  0.32828598  0.43238324  0.65706297     0.12300
H435        H  0.32738425  0.47721300  0.65466308     0.08600
C436        C  0.33702944  0.51874450  0.70948090    -0.10500
C437        C  0.34025128  0.54431948  0.70822496    -0.09800
C438        C  0.31659505  0.55949355  0.72580721    -0.00700
C439        C  0.28968798  0.54847859  0.74529431    -0.10900
C440        C  0.28645635  0.52271401  0.74662385    -0.09300
H441        H  0.35592500  0.50763777  0.69612654     0.08600
H442        H  0.36138302  0.55221057  0.69336587     0.12300
H443        H  0.27116375  0.55975569  0.75933884     0.12000
H444        H  0.26535072  0.51465275  0.76114760     0.08600
C445        C  0.58557680  0.63355292  0.37223271    -0.10500
C446        C  0.56457718  0.64977060  0.39425358     0.06600
C447        C  0.54362098  0.66289494  0.36326699    -0.09300
C448        C  0.54489899  0.66082234  0.31125308    -0.10900
C449        C  0.56725388  0.64571610  0.28943066    -0.00700
C450        C  0.58704796  0.63169677  0.32059330    -0.09800
C451        C  0.56588537  0.65342438  0.44902584     0.06600
H452        H  0.52710814  0.67548976  0.37899092     0.08600
H453        H  0.52924186  0.67175125  0.28807049     0.12000
H454        H  0.60414932  0.61954574  0.30499099     0.12300
H455        H  0.60133724  0.62249215  0.39496557     0.08600
C456        C  0.53906577  0.65610705  0.47803965    -0.10500
C457        C  0.54099784  0.65733786  0.53018458    -0.09800
C458        C  0.56976299  0.65588384  0.55403334    -0.00700
C459        C  0.59648939  0.65449340  0.52470761    -0.10900
C460        C  0.59459025  0.65342700  0.47302976    -0.09300
H461        H  0.51659383  0.65624747  0.46071961     0.08600
H462        H  0.52001181  0.65850937  0.55189007     0.12300
H463        H  0.61904256  0.65374063  0.54179664     0.12000
H464        H  0.61577402  0.65227681  0.45183512     0.08600
C465        C  0.53280829  0.34355156  0.38399043    -0.10500
C466        C  0.55945610  0.34685848  0.41256047     0.06600
C467        C  0.58824888  0.34691812  0.38846518    -0.09300
C468        C  0.59026673  0.34512788  0.33675593    -0.10900
C469        C  0.56354698  0.34311865  0.30783961    -0.00700
C470        C  0.53484395  0.34167602  0.33207984    -0.09800
C471        C  0.55749541  0.35119771  0.46692027     0.06600
H472        H  0.60926122  0.34881412  0.40957437     0.08600
H473        H  0.61275388  0.34605568  0.31923727     0.12000
H474        H  0.51387153  0.34018195  0.31072825     0.12300
H475        H  0.51031118  0.34343600  0.40149219     0.08600
C476        C  0.57628143  0.36910896  0.48793312    -0.10500
C477        C  0.57629780  0.37228183  0.53930904    -0.09800
C478        C  0.55746751  0.35766953  0.57102425    -0.00700
C479        C  0.53759232  0.34051630  0.54999381    -0.10900
C480        C  0.53758322  0.33732359  0.49834539    -0.09300
H481        H  0.59129828  0.38052739  0.46460370     0.08600
H482        H  0.59166263  0.38582022  0.55432318     0.12300
H483        H  0.52285581  0.32898667  0.57357958     0.12000
H484        H  0.52283524  0.32340020  0.48322190     0.08600
C485        C  0.57069873  0.47774368  0.77762123    -0.10500
C486        C  0.59635837  0.48965391  0.75596189     0.06600
C487        C  0.62019615  0.47530889  0.73625035    -0.09300
C488        C  0.61741012  0.44954612  0.73543597    -0.10900
C489        C  0.59076183  0.43785069  0.75433999    -0.00700
C490        C  0.56785329  0.45216543  0.77658120    -0.09800
C491        C  0.59607210  0.51687768  0.74879950     0.06600
H492        H  0.64012308  0.48408448  0.71907524     0.08600
H493        H  0.63543180  0.43891503  0.71812722     0.12000
H494        H  0.54724540  0.44364968  0.79200932     0.12300
H495        H  0.55221963  0.48836331  0.79375431     0.08600
C496        C  0.56927043  0.52848706  0.73049635    -0.10500
C497        C  0.56808235  0.55396318  0.72277149    -0.09800
C498        C  0.59362388  0.56858867  0.73337854    -0.00700
C499        C  0.62070016  0.55711626  0.75140194    -0.10900
C500        C  0.62199106  0.53134253  0.75872912    -0.09300
H501        H  0.54918718  0.51775737  0.72152147     0.08600
H502        H  0.54690637  0.56222400  0.70881808     0.12300
H503        H  0.64072271  0.56802096  0.75986388     0.12000
H504        H  0.64295356  0.52275918  0.77274775     0.08600
C505        C  0.21218482  0.71786253  0.11889121    -0.10500
C506        C  0.22137190  0.74157219  0.10161645     0.06600
C507        C  0.25241527  0.74520392  0.08823639    -0.09300
C508        C  0.27366850  0.72568460  0.09230627    -0.10900
C509        C  0.26435448  0.70201926  0.10940124    -0.00700
C510        C  0.23336230  0.69832525  0.12250454    -0.09800
C511        C  0.19870326  0.76240058  0.09903020     0.06600
H512        H  0.26028444  0.76311077  0.07438351     0.08600
H513        H  0.29742852  0.72910554  0.08196133     0.12000
H514        H  0.22557433  0.68040436  0.13645210     0.12300
H515        H  0.18866761  0.71446573  0.13061759     0.08600
C516        C  0.16799052  0.75822315  0.08525690    -0.10500
C517        C  0.14590395  0.77701012  0.08774112    -0.09800
C518        C  0.15403763  0.80056194  0.10334968    -0.00700
C519        C  0.18497811  0.80522212  0.11463107    -0.10900
C520        C  0.20706159  0.78631686  0.11271891    -0.09300
H521        H  0.16086070  0.74024643  0.07335141     0.08600
H522        H  0.12228612  0.77296964  0.07826382     0.12300
H523        H  0.19187206  0.82319699  0.12693263     0.12000
H524        H  0.23040660  0.79019740  0.12392372     0.08600
C525        C  0.23518495  0.25511394  0.11325365    -0.10500
C526        C  0.20618886  0.26236436  0.09465746     0.06600
C527        C  0.20095953  0.28741204  0.08173785    -0.09300
C528        C  0.22412791  0.30486333  0.08805818    -0.10900
C529        C  0.25287922  0.29758382  0.10756867    -0.00700
C530        C  0.25827651  0.27250713  0.11952208    -0.09800
C531        C  0.18133826  0.24383732  0.09092382     0.06600
H532        H  0.17895309  0.29350880  0.06686532     0.08600
H533        H  0.21936767  0.32409001  0.07845742     0.12000
H534        H  0.28016350  0.26636016  0.13480380     0.12300
H535        H  0.23978521  0.23604452  0.12438996     0.08600
C536        C  0.18815700  0.21985927  0.07567338    -0.10500
C537        C  0.16572582  0.20149627  0.07776462    -0.09800
C538        C  0.13595337  0.20675345  0.09490959    -0.00700
C539        C  0.12860681  0.23102940  0.10770133    -0.10900
C540        C  0.15110765  0.24940331  0.10579486    -0.09300
H541        H  0.21107443  0.21515288  0.06304726     0.08600
H542        H  0.17195974  0.18300167  0.06730721     0.12300
H543        H  0.10580279  0.23560883  0.12106981     0.12000
H544        H  0.14518505  0.26764596  0.11812923     0.08600
C545        C  0.06071322  0.02786833  0.11002054    -0.10500
C546        C  0.08864269  0.01564822  0.12050702     0.06600
C547        C  0.11500291  0.02985117  0.12930311    -0.09300
C548        C  0.11310677  0.05576555  0.12901256    -0.10900
C549        C  0.08482600  0.06782118  0.11988524    -0.00700
C550        C  0.05881836  0.05356033  0.10982069    -0.09800
C551        C  0.08948438  0.98818272  0.12354073     0.06600
H552        H  0.13682054  0.02090691  0.13765399     0.08600
H553        H  0.13352170  0.06630828  0.13693719     0.12000
H554        H  0.03677015  0.06227559  0.10212126     0.12300
H555        H  0.04015751  0.01748988  0.10212016     0.08600
C556        C  0.06556773  0.97517095  0.14796270    -0.10500
C557        C  0.06496052  0.94941336  0.14901107    -0.09800
C558        C  0.08829318  0.93591763  0.12574431    -0.00700
C559        C  0.11258811  0.94882260  0.10198538    -0.10900
C560        C  0.11322159  0.97475000  0.10100743    -0.09300
H561        H  0.04721863  0.98497073  0.16637174     0.08600
H562        H  0.04606543  0.94005891  0.16802198     0.12300
H563        H  0.13093207  0.93889976  0.08385519     0.12000
H564        H  0.13184905  0.98430035  0.08169793     0.08600
C565        C  0.71177913  0.78398563  0.08562504    -0.10500
C566        C  0.72116444  0.75905258  0.09026869     0.06600
C567        C  0.75269132  0.75381415  0.09629203    -0.09300
C568        C  0.77393542  0.77293609  0.10040753    -0.10900
C569        C  0.76416870  0.79772769  0.09893860    -0.00700
C570        C  0.73298130  0.80308720  0.09036119    -0.09800
C571        C  0.69790956  0.73884960  0.09317528     0.06600
H572        H  0.76086930  0.73495334  0.10040105     0.08600
H573        H  0.79791220  0.76823835  0.10657962     0.12000
H574        H  0.72484612  0.82202667  0.08828180     0.12300
H575        H  0.68787213  0.78881642  0.07930600     0.08600
C576        C  0.66932518  0.74300915  0.11616398    -0.10500
C577        C  0.64767051  0.72422482  0.12127436    -0.09800
C578        C  0.65397862  0.70055120  0.10416732    -0.00700
C579        C  0.68252805  0.69608924  0.08131185    -0.10900
C580        C  0.70426948  0.71509508  0.07569021    -0.09300
H581        H  0.66380857  0.76067941  0.13160099     0.08600
H582        H  0.62600447  0.72823870  0.13943089     0.12300
H583        H  0.68799228  0.67799707  0.06770310     0.12000
H584        H  0.72591521  0.71119851  0.05741755     0.08600
C585        C  0.73371752  0.24299730  0.08075428    -0.10500
C586        C  0.70348509  0.23847050  0.09750342     0.06600
C587        C  0.69549402  0.21422636  0.11323416    -0.09300
C588        C  0.71745216  0.19527140  0.11382735    -0.10900
C589        C  0.74795303  0.20025605  0.09957846    -0.00700
C590        C  0.75573918  0.22417088  0.08222779    -0.09800
C591        C  0.68089306  0.25911833  0.10075814     0.06600
H592        H  0.67263365  0.21000771  0.12712233     0.08600
H593        H  0.71090413  0.17700408  0.12765781     0.12000
H594        H  0.77905780  0.22845574  0.07053642     0.12300
H595        H  0.74056773  0.26117254  0.06693465     0.08600
C596        C  0.69070227  0.28301292  0.11223652    -0.10500
C597        C  0.66940943  0.30210303  0.11790236    -0.09800
C598        C  0.63782144  0.29761068  0.11325362    -0.00700
C599        C  0.62793414  0.27397250  0.10095551    -0.10900
C600        C  0.64923480  0.25499511  0.09432861    -0.09300
H601        H  0.71476109  0.28687992  0.11852746     0.08600
H602        H  0.67760492  0.32015029  0.12766614     0.12300
H603        H  0.60366852  0.27010298  0.09664810     0.12000
H604        H  0.64080252  0.23708500  0.08427916     0.08600
C605        C  0.83898472  0.97478744  0.14857635    -0.10500
C606        C  0.81760097  0.98728212  0.11746771     0.06600
C607        C  0.79734045  0.97334536  0.08900938    -0.09300
C608        C  0.79878548  0.94748985  0.09119607    -0.10900
C609        C  0.82065521  0.93517858  0.12157234    -0.00700
C610        C  0.84063075  0.94909126  0.15033159    -0.09800
C611        C  0.81696139  0.01472736  0.11481562     0.06600
H612        H  0.78078555  0.98241012  0.06437418     0.08600
H613        H  0.78316445  0.93716254  0.06857249     0.12000
H614        H  0.85751443  0.94010097  0.17451877     0.12300
H615        H  0.85440049  0.98487271  0.17198340     0.08600
C616        C  0.78901981  0.02794767  0.11150191    -0.10500
C617        C  0.78882463  0.05381578  0.11199808    -0.09800
C618        C  0.81655104  0.06683250  0.11602414    -0.00700
C619        C  0.84440926  0.05362595  0.11807434    -0.10900
C620        C  0.84463158  0.02795020  0.11715655    -0.09300
H621        H  0.76728946  0.01830525  0.11000465     0.08600
H622        H  0.76701531  0.06357159  0.11036244     0.12300
H623        H  0.86618645  0.06314813  0.12059422     0.12000
H624        H  0.86660615  0.01843805  0.11837846     0.08600
C625        C  0.25296830  0.74093914  0.75195216    -0.10500
C626        C  0.22469741  0.73603772  0.77604565     0.06600
C627        C  0.21879678  0.71164545  0.79352865    -0.09300
C628        C  0.23978335  0.69254129  0.78472488    -0.10900
C629        C  0.26743903  0.69743830  0.75908639    -0.00700
C630        C  0.27410798  0.72192831  0.74390003    -0.09800
C631        C  0.20052065  0.75574109  0.77854237     0.06600
H632        H  0.19767553  0.70717119  0.81329134     0.08600
H633        H  0.23422789  0.67390012  0.79754730     0.12000
H634        H  0.29526900  0.72630400  0.72409882     0.12300
H635        H  0.25830225  0.75927842  0.73717497     0.08600
C636        C  0.20839289  0.78084468  0.78216753    -0.10500
C637        C  0.18589590  0.79941890  0.77699207    -0.09800
C638        C  0.15500421  0.79330677  0.76841650    -0.00700
C639        C  0.14685416  0.76826038  0.76802207    -0.10900
C640        C  0.16927409  0.74975416  0.77279628    -0.09300
H641        H  0.23205772  0.78621957  0.78779543     0.08600
H642        H  0.19285284  0.81856698  0.77802118     0.12300
H643        H  0.12323478  0.76291576  0.76172161     0.12000
H644        H  0.16215915  0.73079152  0.76916371     0.08600
C645        C  0.04924234  0.83545982  0.37335157    -0.10500
C646        C  0.07553795  0.84119015  0.40125401     0.06600
C647        C  0.10230805  0.84866036  0.37531717    -0.09300
C648        C  0.10288064  0.85035111  0.32328081    -0.10900
C649        C  0.07666795  0.84476092  0.29539965    -0.00700
C650        C  0.04981244  0.83721217  0.32095016    -0.09800
C651        C  0.07534525  0.83994193  0.45706850     0.06600
H652        H  0.12279827  0.85377944  0.39525269     0.08600
H653        H  0.12391547  0.85636029  0.30486702     0.12000
H654        H  0.02923733  0.83278875  0.30048717     0.12300
H655        H  0.02830058  0.82943481  0.39197248     0.08600
C656        C  0.04932947  0.84724086  0.48450272    -0.10500
C657        C  0.05030821  0.84777649  0.53680522    -0.09800
C658        C  0.07742378  0.84133315  0.56271369    -0.00700
C659        C  0.10308594  0.83347481  0.53547565    -0.10900
C660        C  0.10197045  0.83253531  0.48349673    -0.09300
H661        H  0.02852430  0.85329361  0.46553454     0.08600
H662        H  0.03019831  0.85398947  0.55685821     0.12300
H663        H  0.12417574  0.82810190  0.55444290     0.12000
H664        H  0.12219885  0.82619529  0.46395452     0.08600
C665        C  0.23743335  0.25061329  0.78381696    -0.10500
C666        C  0.20700432  0.25455513  0.76753469     0.06600
C667        C  0.19860333  0.27824181  0.74866740    -0.09300
C668        C  0.22025292  0.29724898  0.74500494    -0.10900
C669        C  0.25087585  0.29287750  0.75930484    -0.00700
C670        C  0.25917847  0.26949918  0.77931975    -0.09800
C671        C  0.18460872  0.23379478  0.76739463     0.06600
H672        H  0.17557413  0.28191643  0.73495024     0.08600
H673        H  0.21332041  0.31508249  0.72915160     0.12000
H674        H  0.28261100  0.26574224  0.79109665     0.12300
H675        H  0.24459595  0.23282602  0.79951952     0.08600
C676        C  0.19433331  0.20976221  0.75618992    -0.10500
C677        C  0.17292193  0.19082681  0.75093362    -0.09800
C678        C  0.14131869  0.19558708  0.75611714    -0.00700
C679        C  0.13166178  0.21922388  0.76958680    -0.10900
C680        C  0.15305443  0.23806840  0.77543040    -0.09300
H681        H  0.21836587  0.20577467  0.74920081     0.08600
H682        H  0.18100718  0.17276132  0.74062319     0.12300
H683        H  0.10744293  0.22331944  0.77458112     0.12000
H684        H  0.14477188  0.25611643  0.78541744     0.08600
C685        C  0.08490024  0.13779621  0.47665180    -0.10500
C686        C  0.06021917  0.14960172  0.45161488     0.06600
C687        C  0.03619591  0.15949715  0.48028342    -0.09300
C688        C  0.03748692  0.15831887  0.53264617    -0.10900
C689        C  0.06287615  0.14732070  0.55723095    -0.00700
C690        C  0.08629202  0.13680744  0.52857840    -0.09800
C691        C  0.06034529  0.15183572  0.39595526     0.06600
H692        H  0.01684786  0.16875264  0.46232234     0.08600
H693        H  0.01894994  0.16638025  0.55380792     0.12000
H694        H  0.10589577  0.12777472  0.54630906     0.12300
H695        H  0.10331139  0.12922194  0.45608095     0.08600
C696        C  0.08830740  0.15530862  0.37006953    -0.10500
C697        C  0.08925956  0.15577636  0.31805250    -0.09800
C698        C  0.06224225  0.15308200  0.29020964    -0.00700
C699        C  0.03403608  0.15058127  0.31571022    -0.10900
C700        C  0.03309235  0.14991980  0.36808838    -0.09300
H701        H  0.10965561  0.15762871  0.39002907     0.08600
H702        H  0.11134135  0.15802401  0.29961383     0.12300
H703        H  0.01283003  0.14848347  0.29523280     0.12000
H704        H  0.01116798  0.14712634  0.38668473     0.08600
C705        C  0.06366272  0.02042169  0.70722852    -0.10500
C706        C  0.08715362  0.00867252  0.73537251     0.06600
C707        C  0.10856587  0.02337015  0.75981988    -0.09300
C708        C  0.10603746  0.04917168  0.75713590    -0.10900
C709        C  0.08194302  0.06074477  0.73028632    -0.00700
C710        C  0.06096269  0.04610818  0.70501117    -0.09800
C711        C  0.08872062  0.98121655  0.73932731     0.06600
H712        H  0.12683597  0.01494745  0.78197094     0.08600
H713        H  0.12261658  0.06004701  0.77678452     0.12000
H714        H  0.04245285  0.05451696  0.68332345     0.12300
H715        H  0.04730315  0.00975086  0.68668897     0.08600
C716        C  0.06139699  0.96744093  0.74149101    -0.10500
C717        C  0.06223378  0.94176606  0.74036992    -0.09800
C718        C  0.09042355  0.92909983  0.73777585    -0.00700
C719        C  0.11791931  0.94261096  0.73862775    -0.10900
C720        C  0.11708333  0.96849477  0.73918283    -0.09300
H721        H  0.03919818  0.97653371  0.74342062     0.08600
H722        H  0.04065429  0.93181874  0.74090630     0.12300
H723        H  0.13996672  0.93325412  0.73705286     0.12000
H724        H  0.13857164  0.97853124  0.73754052     0.08600
C725        C  0.74861598  0.75679898  0.76002195    -0.10500
C726        C  0.71798681  0.76187601  0.74592895     0.06600
C727        C  0.70990705  0.78630353  0.73155060    -0.09300
C728        C  0.73189995  0.80503640  0.73071220    -0.10900
C729        C  0.76258526  0.79971422  0.74334661    -0.00700
C730        C  0.77071903  0.77546895  0.75829557    -0.09800
C731        C  0.69477285  0.74174461  0.74486372     0.06600
H732        H  0.68677789  0.79090778  0.71947062     0.08600
H733        H  0.72508758  0.82354084  0.71854089     0.12000
H734        H  0.79422540  0.77090743  0.76847535     0.12300
H735        H  0.75560394  0.73838406  0.77238391     0.08600
C736        C  0.70340714  0.71772294  0.73184435    -0.10500
C737        C  0.68144639  0.69905468  0.72923960    -0.09800
C738        C  0.65029969  0.70405539  0.73885932    -0.00700
C739        C  0.64160258  0.72791460  0.75217647    -0.10900
C740        C  0.66360418  0.74648985  0.75555554    -0.09300
H741        H  0.72701319  0.71342142  0.72234016     0.08600
H742        H  0.68874934  0.68085597  0.71844294     0.12300
H743        H  0.61774793  0.73223952  0.76003725     0.12000
H744        H  0.65612066  0.76455454  0.76676348     0.08600
C745        C  0.86365887  0.83766352  0.48136956    -0.10500
C746        C  0.84222383  0.85117430  0.45204390     0.06600
C747        C  0.82085636  0.86638215  0.47586063    -0.09300
C748        C  0.82038325  0.86761147  0.52771952    -0.10900
C749        C  0.84134044  0.85373435  0.55718339    -0.00700
C750        C  0.86319221  0.83890736  0.53350221    -0.09800
C751        C  0.84139537  0.84917154  0.39691862     0.06600
H752        H  0.80442527  0.87738421  0.45431049     0.08600
H753        H  0.80339220  0.87935841  0.54477573     0.12000
H754        H  0.87958870  0.82799319  0.55528319     0.12300
H755        H  0.88027712  0.82568326  0.46408098     0.08600
C756        C  0.86860546  0.84916266  0.36829674    -0.10500
C757        C  0.86727392  0.84858635  0.31609907    -0.09800
C758        C  0.83871137  0.84803231  0.29169825    -0.00700
C759        C  0.81164262  0.84738436  0.32046774    -0.10900
C760        C  0.81296707  0.84786382  0.37236684    -0.09300
H761        H  0.89084130  0.85029093  0.38616288     0.08600
H762        H  0.88850162  0.84921006  0.29481616     0.12300
H763        H  0.78929622  0.84676396  0.30279253     0.12000
H764        H  0.79162876  0.84732804  0.39336437     0.08600
C765        C  0.73518983  0.24589928  0.73067170    -0.10500
C766        C  0.70595126  0.24081230  0.75100448     0.06600
C767        C  0.69921440  0.21641774  0.76728837    -0.09300
C768        C  0.72122277  0.19759466  0.76311757    -0.10900
C769        C  0.75040482  0.20282528  0.74272415    -0.00700
C770        C  0.75714320  0.22718082  0.72674509    -0.09800
C771        C  0.68251572  0.26087177  0.75373540     0.06600
H772        H  0.67700624  0.21190789  0.78353982     0.08600
H773        H  0.71539443  0.17897785  0.77573938     0.12000
H774        H  0.77932653  0.23176546  0.71045138     0.12300
H775        H  0.74096205  0.26431772  0.71678194     0.08600
C776        C  0.69120780  0.28501687  0.76526806    -0.10500
C777        C  0.66961492  0.30427597  0.76427851    -0.09800
C778        C  0.63887332  0.29982587  0.75160366    -0.00700
C779        C  0.62996021  0.27560310  0.74147742    -0.10900
C780        C  0.65150614  0.25633846  0.74262264    -0.09300
H781        H  0.71479258  0.28906836  0.77485668     0.08600
H782        H  0.67712457  0.32273540  0.77239746     0.12300
H783        H  0.60638645  0.27160004  0.73168001     0.12000
H784        H  0.64406023  0.23806383  0.73306064     0.08600
C785        C  0.81702079  0.13239665  0.37175777    -0.10500
C786        C  0.83065571  0.15207823  0.39605637     0.06600
C787        C  0.84528784  0.17080195  0.36701066    -0.09300
C788        C  0.84554859  0.17005302  0.31469208    -0.10900
C789        C  0.83109442  0.15060629  0.29068232    -0.00700
C790        C  0.81714829  0.13172247  0.31989910    -0.09800
C791        C  0.82903306  0.15285541  0.45141748     0.06600
H792        H  0.85588973  0.18627382  0.38466134     0.08600
H793        H  0.85638970  0.18489634  0.29307737     0.12000
H794        H  0.80608740  0.11634472  0.30260305     0.12300
H795        H  0.80622284  0.11737736  0.39291702     0.08600
C796        C  0.80196235  0.14555194  0.47666579    -0.10500
C797        C  0.80055219  0.14497310  0.52865560    -0.09800
C798        C  0.82611428  0.15181044  0.55685729    -0.00700
C799        C  0.85310296  0.15944580  0.53183313    -0.10900
C800        C  0.85452702  0.16001728  0.47957132    -0.09300
H801        H  0.78172920  0.14031943  0.45615199     0.08600
H802        H  0.77936863  0.13908771  0.54677408     0.12300
H803        H  0.87318546  0.16475514  0.55263240     0.12000
H804        H  0.87579066  0.16549612  0.46124247     0.08600
C805        C  0.79121763  0.02724817  0.75801157    -0.10500
C806        C  0.81105601  0.01412290  0.72684678     0.06600
C807        C  0.82955303  0.02734212  0.69222460    -0.09300
C808        C  0.82963224  0.05302795  0.69072369    -0.10900
C809        C  0.81084064  0.06616818  0.72323317    -0.00700
C810        C  0.79105708  0.05312387  0.75611624    -0.09800
C811        C  0.81395877  0.98685193  0.73163116     0.06600
H812        H  0.84438352  0.01779905  0.66663555     0.08600
H813        H  0.84470785  0.06260926  0.66431781     0.12000
H814        H  0.77623855  0.06288332  0.78138148     0.12300
H815        H  0.77674451  0.01756460  0.78512314     0.08600
C816        C  0.84311071  0.97577939  0.72728023    -0.10500
C817        C  0.84628142  0.95020115  0.72881816    -0.09800
C818        C  0.82042837  0.93499809  0.73522558    -0.00700
C819        C  0.79134116  0.94591758  0.74171481    -0.10900
C820        C  0.78811369  0.97168322  0.73984617    -0.09300
H821        H  0.86361021  0.98692201  0.72248958     0.08600
H822        H  0.86904001  0.94232552  0.72428514     0.12300
H823        H  0.77102541  0.93457377  0.74669725     0.12000
H824        H  0.76535454  0.97968614  0.74329277     0.08600
loop_ 
_geom_bond_atom_site_label_1 
_geom_bond_atom_site_label_2 
_geom_bond_distance 
_geom_bond_site_symmetry_2 
_ccdc_geom_bond_type 
O1            C4   1.270       .  A
O1           Cd6   2.484       .  S
C2           O11   1.264       .  A
C2            O7   1.268       .  A
C2          C161   1.486       .  S
O3            C9   1.268       .  A
O3           Cd6   2.484       .  S
C4           O12   1.266       .  A
C4          C798   1.480       .  S
C5           O10   1.269       .  A
C5            O8   1.264       .  A
C5          C809   1.472       .  S
Cd6          O13   2.436       .  S
Cd6          O12   2.429       .  S
Cd6          O11   2.445       .  S
Cd6           O7   2.477       .  S
Cd6          O10   2.478       .  S
Cd6           O8   2.405       .  S
C9           O13   1.265       .  A
C9          C769   1.479       .  S
O14          C17   1.270       .  A
O14         Cd19   2.482       .  S
C15          O24   1.262       .  A
C15          O20   1.268       .  A
C15         C749   1.481       .  S
O16          C22   1.265       .  A
O16         Cd19   2.462       .  S
C17          O25   1.266       .  A
C17         C128   1.494       .  S
C18          O23   1.268       .  A
C18          O21   1.266       .  A
C18         C818   1.475       .  S
Cd19         O26   2.456       .  S
Cd19         O25   2.448       .  S
Cd19         O24   2.441       .  S
Cd19         O20   2.506       .  S
Cd19         O23   2.476       .  S
Cd19         O21   2.420       .  S
C22          O26   1.264       .  A
C22         C729   1.475       .  S
O27          C30   1.268       .  A
O27         Cd32   2.509       .  S
C28          O37   1.265       .  A
C28          O33   1.268       .  A
C28         C162   1.483       .  S
O29          C35   1.267       .  A
O29         Cd32   2.471       .  S
C30          O38   1.264       .  A
C30         C689   1.482       .  S
C31          O36   1.267       .  A
C31          O34   1.264       .  A
C31         C678   1.478       .  S
Cd32         O39   2.448       .  S
Cd32         O38   2.431       .  S
Cd32         O37   2.446       .  S
Cd32         O33   2.460       .  S
Cd32         O36   2.488       .  S
Cd32         O34   2.449       .  S
C35          O39   1.266       .  A
C35         C709   1.478       .  S
O40          C43   1.267       .  A
O40         Cd45   2.516       .  S
C41          O50   1.265       .  A
C41          O46   1.270       .  A
C41         C127   1.488       .  S
O42          C48   1.268       .  A
O42         Cd45   2.491       .  S
C43          O51   1.265       .  A
C43         C658   1.485       .  S
C44          O49   1.268       .  A
C44          O47   1.263       .  A
C44         C718   1.477       .  S
Cd45         O52   2.455       .  S
Cd45         O51   2.474       .  S
Cd45         O50   2.450       .  S
Cd45         O46   2.480       .  S
Cd45         O49   2.503       .  S
Cd45         O47   2.421       .  S
C48          O52   1.267       .  A
C48         C638   1.484       .  S
O53          C56   1.268       .  A
O53         Cd58   2.532       .  S
C54          O63   1.266       .  A
C54          O59   1.270       .  A
C54         C160   1.491       .  S
O55          C61   1.270       .  A
O55         Cd58   2.484       .  S
C56          O64   1.261       .  A
C56         C789   1.482       .  S
C57          O62   1.263       .  A
C57          O60   1.266       .  A
C57         C589   1.474       .  S
Cd58         O65   2.414       .  S
Cd58         O64   2.426       .  S
Cd58         O63   2.455       .  S
Cd58         O59   2.470       .  S
Cd58         O62   2.436       .  S
Cd58         O60   2.480       .  S
C61          O65   1.266       .  A
C61         C618   1.476       .  S
O66          C69   1.269       .  A
O66         Cd71   2.497       .  S
C67          O76   1.265       .  A
C67          O72   1.269       .  A
C67         C125   1.487       .  S
O68          C74   1.269       .  A
O68         Cd71   2.479       .  S
C69          O77   1.265       .  A
C69         C758   1.480       .  S
C70          O75   1.269       .  A
C70          O73   1.264       .  A
C70         C609   1.475       .  S
Cd71         O78   2.439       .  S
Cd71         O77   2.437       .  S
Cd71         O76   2.461       .  S
Cd71         O72   2.462       .  S
Cd71         O75   2.482       .  S
Cd71         O73   2.421       .  S
C74          O78   1.265       .  A
C74         C569   1.479       .  S
O79          C82   1.269       .  A
O79         Cd84   2.514       .  S
C80          O89   1.265       .  A
C80          O85   1.270       .  A
C80         C159   1.492       .  S
O81          C87   1.269       .  A
O81         Cd84   2.455       .  S
C82          O90   1.263       .  A
C82         C698   1.484       .  S
C83          O88   1.268       .  A
C83          O86   1.264       .  A
C83         C549   1.482       .  S
Cd84         O91   2.442       .  S
Cd84         O90   2.445       .  S
Cd84         O89   2.460       .  S
Cd84         O85   2.470       .  S
Cd84         O88   2.513       .  S
Cd84         O86   2.431       .  S
C87          O91   1.266       .  A
C87         C538   1.476       .  S
O92          C95   1.269       .  A
O92         Cd97   2.514       .  S
C93         O102   1.266       .  A
C93          O98   1.269       .  A
C93         C126   1.490       .  S
O94         C100   1.268       .  A
O94         Cd97   2.497       .  S
C95         O103   1.264       .  A
C95         C649   1.485       .  S
C96         O101   1.268       .  A
C96          O99   1.266       .  A
C96         C518   1.481       .  S
Cd97        O104   2.441       .  S
Cd97        O103   2.437       .  S
Cd97        O102   2.461       .  S
Cd97         O98   2.484       .  S
Cd97        O101   2.486       .  S
Cd97         O99   2.459       .  S
C100        O104   1.265       .  A
C100        C558   1.482       .  S
N105        C110   1.354       .  A
N105        C109   1.352       .  A
N105        H137   1.042   1_554  S
N106        C113   1.353       .  A
N106        C114   1.353       .  A
N107        C112   1.353       .  A
N107        C111   1.355       .  A
N107        H138   1.043       .  S
N108        C115   1.353       .  A
N108        C116   1.352       .  A
C109        C117   1.387       .  A
C109        C125   1.412       .  A
C110        C126   1.414   1_655  A
C110        C118   1.387       .  A
C111        C119   1.388       .  A
C111        C128   1.416       .  A
C112        C127   1.414   1_655  A
C112        C120   1.387       .  A
C113        C125   1.414   1_556  A
C113        C121   1.386       .  A
C114        C128   1.416       .  A
C114        C122   1.387       .  A
C115        C123   1.386       .  A
C115        C126   1.415   1_556  A
C116        C124   1.386       .  A
C116        C127   1.414       .  A
C117        C118   1.374       .  A
C117        H129   1.082       .  S
C118        H130   1.082       .  S
C119        C120   1.375       .  A
C119        H131   1.081       .  S
C120        H132   1.082       .  S
C121        C122   1.375       .  A
C121        H133   1.082       .  S
C122        H134   1.082       .  S
C123        C124   1.375       .  A
C123        H135   1.082       .  S
C124        H136   1.082       .  S
N139        C144   1.354   1_556  A
N139        C143   1.354   1_556  A
N139        H171   1.043       .  S
N140        C147   1.353   1_655  A
N140        C148   1.352   1_655  A
N141        C146   1.352       .  A
N141        C145   1.352       .  A
N141        H172   1.042       .  S
N142        C149   1.352       .  A
N142        C150   1.352       .  A
C143        C151   1.387       .  A
C143        C159   1.415   1_655  A
C144        C160   1.413       .  A
C144        C152   1.386       .  A
C145        C153   1.388       .  A
C145        C162   1.412   1_655  A
C146        C161   1.411       .  A
C146        C154   1.387       .  A
C147        C159   1.416   1_556  A
C147        C155   1.387       .  A
C148        C162   1.414       .  A
C148        C156   1.387       .  A
C149        C157   1.386       .  A
C149        C160   1.413   1_556  A
C150        C158   1.386       .  A
C150        C161   1.414       .  A
C151        C152   1.372       .  A
C151        H163   1.082       .  S
C152        H164   1.082       .  S
C153        C154   1.374       .  A
C153        H165   1.082       .  S
C154        H166   1.082       .  S
C155        C156   1.376       .  A
C155        H167   1.082       .  S
C156        H168   1.082       .  S
C157        C158   1.374       .  A
C157        H169   1.082       .  S
C158        H170   1.082       .  S
O173        C176   1.267       .  A
O173       Cd178   2.497       .  S
C174        O183   1.266       .  A
C174        O179   1.269       .  A
C174        C300   1.491       .  S
O175        C181   1.268       .  A
O175       Cd178   2.489       .  S
C176        O184   1.263       .  A
C176        C478   1.480       .  S
C177        O182   1.267       .  A
C177        O180   1.264       .  A
C177        C489   1.478       .  S
Cd178       O185   2.445       .  S
Cd178       O184   2.440       .  S
Cd178       O183   2.449       .  S
Cd178       O179   2.477       .  S
Cd178       O182   2.495       .  S
Cd178       O180   2.443       .  S
C181        O185   1.264       .  A
C181        C778   1.480       .  S
O186        C189   1.268       .  A
O186       Cd191   2.514       .  S
C187        O196   1.265       .  A
C187        O192   1.269       .  A
C187        C331   1.487       .  S
O188        C194   1.267       .  A
O188       Cd191   2.487       .  S
C189        O197   1.263       .  A
C189        C458   1.481       .  S
C190        O195   1.266       .  A
C190        O193   1.266       .  A
C190        C738   1.476       .  S
Cd191       O198   2.408       .  S
Cd191       O197   2.426       .  S
Cd191       O196   2.455       .  S
Cd191       O192   2.477       .  S
Cd191       O195   2.456       .  S
Cd191       O193   2.453       .  S
C194        O198   1.264       .  A
C194        C498   1.475       .  S
O199        C202   1.270       .  A
O199       Cd204   2.505       .  S
C200        O209   1.264       .  A
C200        O205   1.267       .  A
C200        C299   1.492       .  S
O201        C207   1.268       .  A
O201       Cd204   2.512       .  S
C202        O210   1.264       .  A
C202        C418   1.481       .  S
C203        O208   1.269       .  A
C203        O206   1.267       .  A
C203        C669   1.476       .  S
Cd204       O211   2.408       .  S
Cd204       O210   2.414       .  S
Cd204       O209   2.451       .  S
Cd204       O205   2.483       .  S
Cd204       O208   2.468       .  S
Cd204       O206   2.442       .  S
C207        O211   1.261       .  A
C207        C429   1.475       .  S
O212        C215   1.267       .  A
O212       Cd217   2.510       .  S
C213        O222   1.264       .  A
C213        O218   1.267       .  A
C213        C332   1.486       .  S
O214        C220   1.269       .  A
O214       Cd217   2.493       .  S
C215        O223   1.265       .  A
C215        C389   1.483       .  S
C216        O221   1.268       .  A
C216        O219   1.263       .  A
C216        C438   1.478       .  S
Cd217       O224   2.449       .  S
Cd217       O223   2.470       .  S
Cd217       O222   2.473       .  S
Cd217       O218   2.472       .  S
Cd217       O221   2.498       .  S
Cd217       O219   2.424       .  S
C220        O224   1.266       .  A
C220        C629   1.483       .  S
O225        C228   1.267       .  A
O225       Cd230   2.519       .  S
C226        O235   1.265       .  A
C226        O231   1.269       .  A
C226        C298   1.490       .  S
O227        C233   1.268       .  A
O227       Cd230   2.455       .  S
C228        O236   1.262       .  A
C228        C409   1.480       .  S
C229        O234   1.266       .  A
C229        O232   1.261       .  A
C229        C378   1.476       .  S
Cd230       O237   2.438       .  S
Cd230       O236   2.443       .  S
Cd230       O235   2.450       .  S
Cd230       O231   2.464       .  S
Cd230       O234   2.502       .  S
Cd230       O232   2.424       .  S
C233        O237   1.268       .  A
C233        C529   1.476       .  S
O238        C241   1.268       .  A
O238       Cd243   2.499       .  S
C239        O248   1.266       .  A
C239        O244   1.268       .  A
C239        C333   1.491       .  S
O240        C246   1.269       .  A
O240       Cd243   2.498       .  S
C241        O249   1.263       .  A
C241        C398   1.478       .  S
C242        O247   1.268       .  A
C242        O245   1.264       .  A
C242        C509   1.485       .  S
Cd243       O250   2.464       .  S
Cd243       O249   2.410       .  S
Cd243       O248   2.450       .  S
Cd243       O244   2.472       .  S
Cd243       O247   2.496       .  S
Cd243       O245   2.473       .  S
C246        O250   1.265       .  A
C246        C369   1.484       .  S
O251        C254   1.269       .  A
O251       Cd256   2.502       .  S
C252        O261   1.264       .  A
C252        O257   1.269       .  A
C252        C297   1.497       .  S
O253        C259   1.263       .  A
O253       Cd256   2.427       .  S
C254        O262   1.264       .  A
C254        C469   1.482       .  S
C255        O260   1.269       .  A
C255        O258   1.266       .  A
C255        C598   1.472       .  S
Cd256       O263   2.495       .  S
Cd256       O262   2.448       .  S
Cd256       O261   2.459       .  S
Cd256       O257   2.489       .  S
Cd256       O260   2.453       .  S
Cd256       O258   2.426       .  S
C259        O263   1.267       .  A
C259        C349   1.477       .  S
O264        C267   1.268       .  A
O264       Cd269   2.458       .  S
C265        O274   1.265       .  A
C265        O270   1.268       .  A
C265        C449   1.481       .  S
O266        C272   1.269       .  A
O266       Cd269   2.472       .  S
C267        O275   1.266       .  A
C267        C334   1.488       .  S
C268        O273   1.268       .  A
C268        O271   1.264       .  A
C268        C578   1.480       .  S
Cd269       O276   2.430       .  S
Cd269       O275   2.462       .  S
Cd269       O274   2.443       .  S
Cd269       O270   2.502       .  S
Cd269       O273   2.506       .  S
Cd269       O271   2.423       .  S
C272        O276   1.265       .  A
C272        C358   1.475       .  S
N277        C282   1.351       .  A
N277        C281   1.352       .  A
N277        H309   1.044   1_554  S
N278        C285   1.355       .  A
N278        C286   1.353       .  A
N279        C284   1.352       .  A
N279        C283   1.351       .  A
N279        H310   1.044       .  S
N280        C287   1.353       .  A
N280        C288   1.353       .  A
C281        C289   1.387       .  A
C281        C297   1.414       .  A
C282        C298   1.412       .  A
C282        C290   1.386       .  A
C283        C291   1.387       .  A
C283        C300   1.414       .  A
C284        C299   1.415       .  A
C284        C292   1.388       .  A
C285        C297   1.418   1_556  A
C285        C293   1.386       .  A
C286        C300   1.416       .  A
C286        C294   1.386       .  A
C287        C295   1.387       .  A
C287        C298   1.416   1_556  A
C288        C296   1.387       .  A
C288        C299   1.417       .  A
C289        C290   1.377       .  A
C289        H301   1.081       .  S
C290        H302   1.082       .  S
C291        C292   1.379       .  A
C291        H303   1.082       .  S
C292        H304   1.082       .  S
C293        C294   1.373       .  A
C293        H305   1.081       .  S
C294        H306   1.081       .  S
C295        C296   1.372       .  A
C295        H307   1.081       .  S
C296        H308   1.081       .  S
N311        C316   1.353       .  A
N311        C315   1.353       .  A
N311        H343   1.042       .  S
N312        C319   1.352       .  A
N312        C320   1.351       .  A
N313        C318   1.356       .  A
N313        C317   1.355       .  A
N313        H344   1.043   1_554  S
N314        C321   1.353       .  A
N314        C322   1.352       .  A
C315        C323   1.387       .  A
C315        C331   1.414       .  A
C316        C332   1.412       .  A
C316        C324   1.387       .  A
C317        C325   1.388       .  A
C317        C334   1.417       .  A
C318        C333   1.416       .  A
C318        C326   1.386       .  A
C319        C331   1.415       .  A
C319        C327   1.387       .  A
C320        C334   1.413   1_556  A
C320        C328   1.386       .  A
C321        C329   1.386       .  A
C321        C332   1.414       .  A
C322        C330   1.387       .  A
C322        C333   1.414   1_556  A
C323        C324   1.375       .  A
C323        H335   1.082       .  S
C324        H336   1.082       .  S
C325        C326   1.372       .  A
C325        H337   1.082       .  S
C326        H338   1.082       .  S
C327        C328   1.375       .  A
C327        H339   1.082       .  S
C328        H340   1.082       .  S
C329        C330   1.374       .  A
C329        H341   1.082       .  S
C330        H342   1.082       .  S
C345        C346   1.406       .  A
C345        C350   1.402       .  A
C345        H355   1.083       .  S
C346        C351   1.480       .  S
C346        C347   1.403       .  A
C347        C348   1.393       .  A
C347        H352   1.083       .  S
C348        C349   1.404       .  A
C348        H353   1.083       .  S
C349        C350   1.406       .  A
C350        H354   1.083       .  S
C351        C356   1.404       .  A
C351        C360   1.404       .  A
C356        C357   1.400       .  A
C356        H361   1.083       .  S
C357        C358   1.405       .  A
C357        H362   1.083       .  S
C358        C359   1.404       .  A
C359        C360   1.394       .  A
C359        H363   1.083       .  S
C360        H364   1.083       .  S
C365        C366   1.405       .  A
C365        C370   1.397       .  A
C365        H375   1.083       .  S
C366        C371   1.484       .  S
C366        C367   1.404       .  A
C367        C368   1.402       .  A
C367        H372   1.083       .  S
C368        C369   1.406       .  A
C368        H373   1.083       .  S
C369        C370   1.406       .  A
C370        H374   1.083       .  S
C371        C376   1.403       .  A
C371        C380   1.407       .  A
C376        C377   1.393       .  A
C376        H381   1.083       .  S
C377        C378   1.404       .  A
C377        H382   1.083       .  S
C378        C379   1.405       .  A
C379        C380   1.403       .  A
C379        H383   1.083       .  S
C380        H384   1.083       .  S
C385        C386   1.407       .  A
C385        C390   1.396       .  A
C385        H395   1.083       .  S
C386        C391   1.490       .  S
C386        C387   1.408       .  A
C387        C388   1.405       .  A
C387        H392   1.083       .  S
C388        C389   1.407       .  A
C388        H393   1.083       .  S
C389        C390   1.403       .  A
C390        H394   1.083       .  S
C391        C396   1.405       .  A
C391        C400   1.409       .  A
C396        C397   1.391       .  A
C396        H401   1.083       .  S
C397        C398   1.403       .  A
C397        H402   1.083       .  S
C398        C399   1.406       .  A
C399        C400   1.405       .  A
C399        H403   1.083       .  S
C400        H404   1.083       .  S
C405        C406   1.406       .  A
C405        C410   1.393       .  A
C405        H415   1.083       .  S
C406        C411   1.490       .  S
C406        C407   1.408       .  A
C407        C408   1.405       .  A
C407        H412   1.083       .  S
C408        C409   1.406       .  A
C408        H413   1.083       .  S
C409        C410   1.403       .  A
C410        H414   1.083       .  S
C411        C416   1.405       .  A
C411        C420   1.408       .  A
C416        C417   1.392       .  A
C416        H421   1.083       .  S
C417        C418   1.404       .  A
C417        H422   1.083       .  S
C418        C419   1.406       .  A
C419        C420   1.405       .  A
C419        H423   1.083       .  S
C420        H424   1.083       .  S
C425        C426   1.404       .  A
C425        C430   1.391       .  A
C425        H435   1.083       .  S
C426        C431   1.485       .  S
C426        C427   1.408       .  A
C427        C428   1.403       .  A
C427        H432   1.083       .  S
C428        C429   1.404       .  A
C428        H433   1.083       .  S
C429        C430   1.404       .  A
C430        H434   1.083       .  S
C431        C436   1.405       .  A
C431        C440   1.407       .  A
C436        C437   1.392       .  A
C436        H441   1.083       .  S
C437        C438   1.404       .  A
C437        H442   1.083       .  S
C438        C439   1.406       .  A
C439        C440   1.402       .  A
C439        H443   1.083       .  S
C440        H444   1.083       .  S
C445        C446   1.407       .  A
C445        C450   1.394       .  A
C445        H455   1.083       .  S
C446        C451   1.491       .  S
C446        C447   1.408       .  A
C447        C448   1.405       .  A
C447        H452   1.083       .  S
C448        C449   1.407       .  A
C448        H453   1.083       .  S
C449        C450   1.403       .  A
C450        H454   1.083       .  S
C451        C456   1.409       .  A
C451        C460   1.405       .  A
C456        C457   1.406       .  A
C456        H461   1.083       .  S
C457        C458   1.406       .  A
C457        H462   1.083       .  S
C458        C459   1.403       .  A
C459        C460   1.392       .  A
C459        H463   1.083       .  S
C460        H464   1.083       .  S
C465        C466   1.406       .  A
C465        C470   1.402       .  A
C465        H475   1.083       .  S
C466        C471   1.487       .  S
C466        C467   1.406       .  A
C467        C468   1.396       .  A
C467        H472   1.083       .  S
C468        C469   1.405       .  A
C468        H473   1.083       .  S
C469        C470   1.405       .  A
C470        H474   1.083       .  S
C471        C476   1.405       .  A
C471        C480   1.407       .  A
C476        C477   1.395       .  A
C476        H481   1.083       .  S
C477        C478   1.404       .  A
C477        H482   1.083       .  S
C478        C479   1.406       .  A
C479        C480   1.402       .  A
C479        H483   1.083       .  S
C480        H484   1.083       .  S
C485        C486   1.404       .  A
C485        C490   1.393       .  A
C485        H495   1.083       .  S
C486        C491   1.480       .  S
C486        C487   1.405       .  A
C487        C488   1.402       .  A
C487        H492   1.083       .  S
C488        C489   1.407       .  A
C488        H493   1.083       .  S
C489        C490   1.403       .  A
C490        H494   1.083       .  S
C491        C496   1.403       .  A
C491        C500   1.406       .  A
C496        C497   1.389       .  A
C496        H501   1.083       .  S
C497        C498   1.402       .  A
C497        H502   1.083       .  S
C498        C499   1.407       .  A
C499        C500   1.404       .  A
C499        H503   1.083       .  S
C500        H504   1.083       .  S
C505        C506   1.409       .  A
C505        C510   1.400       .  A
C505        H515   1.083       .  S
C506        C511   1.494       .  S
C506        C507   1.407       .  A
C507        C508   1.402       .  A
C507        H512   1.083       .  S
C508        C509   1.407       .  A
C508        H513   1.083       .  S
C509        C510   1.404       .  A
C510        H514   1.083       .  S
C511        C516   1.407       .  A
C511        C520   1.409       .  A
C516        C517   1.399       .  A
C516        H521   1.083       .  S
C517        C518   1.404       .  A
C517        H522   1.083       .  S
C518        C519   1.405       .  A
C519        C520   1.402       .  A
C519        H523   1.083       .  S
C520        H524   1.082       .  S
C525        C526   1.406       .  A
C525        C530   1.394       .  A
C525        H535   1.083       .  S
C526        C531   1.483       .  S
C526        C527   1.406       .  A
C527        C528   1.399       .  A
C527        H532   1.083       .  S
C528        C529   1.405       .  A
C528        H533   1.083       .  S
C529        C530   1.403       .  A
C530        H534   1.083       .  S
C531        C536   1.406       .  A
C531        C540   1.406       .  A
C536        C537   1.395       .  A
C536        H541   1.083       .  S
C537        C538   1.403       .  A
C537        H542   1.083       .  S
C538        C539   1.406       .  A
C539        C540   1.398       .  A
C539        H543   1.083       .  S
C540        H544   1.083       .  S
C545        C546   1.404       .  A
C545        C550   1.393       .  A
C545        H555   1.083       .  S
C546        C551   1.487   1_545  S
C546        C547   1.408       .  A
C547        C548   1.405       .  A
C547        H552   1.083       .  S
C548        C549   1.407       .  A
C548        H553   1.083       .  S
C549        C550   1.404       .  A
C550        H554   1.083       .  S
C551        C556   1.405       .  A
C551        C560   1.407       .  A
C556        C557   1.395       .  A
C556        H561   1.083       .  S
C557        C558   1.405       .  A
C557        H562   1.083       .  S
C558        C559   1.407       .  A
C559        C560   1.404       .  A
C559        H563   1.083       .  S
C560        H564   1.083       .  S
C565        C566   1.410       .  A
C565        C570   1.398       .  A
C565        H575   1.082       .  S
C566        C571   1.493       .  S
C566        C567   1.406       .  A
C567        C568   1.398       .  A
C567        H572   1.082       .  S
C568        C569   1.406       .  A
C568        H573   1.083       .  S
C569        C570   1.402       .  A
C570        H574   1.083       .  S
C571        C576   1.405       .  A
C571        C580   1.411       .  A
C576        C577   1.392       .  A
C576        H581   1.082       .  S
C577        C578   1.403       .  A
C577        H582   1.083       .  S
C578        C579   1.405       .  A
C579        C580   1.404       .  A
C579        H583   1.083       .  S
C580        H584   1.082       .  S
C585        C586   1.406       .  A
C585        C590   1.395       .  A
C585        H595   1.082       .  S
C586        C591   1.489       .  S
C586        C587   1.409       .  A
C587        C588   1.398       .  A
C587        H592   1.082       .  S
C588        C589   1.403       .  A
C588        H593   1.083       .  S
C589        C590   1.403       .  A
C590        H594   1.083       .  S
C591        C596   1.409       .  A
C591        C600   1.407       .  A
C596        C597   1.396       .  A
C596        H601   1.082       .  S
C597        C598   1.402       .  A
C597        H602   1.083       .  S
C598        C599   1.403       .  A
C599        C600   1.396       .  A
C599        H603   1.083       .  S
C600        H604   1.082       .  S
C605        C606   1.406       .  A
C605        C610   1.392       .  A
C605        H615   1.083       .  S
C606        C611   1.486   1_565  S
C606        C607   1.407       .  A
C607        C608   1.401       .  A
C607        H612   1.082       .  S
C608        C609   1.404       .  A
C608        H613   1.083       .  S
C609        C610   1.403       .  A
C610        H614   1.083       .  S
C611        C616   1.408       .  A
C611        C620   1.405       .  A
C616        C617   1.402       .  A
C616        H621   1.083       .  S
C617        C618   1.405       .  A
C617        H622   1.083       .  S
C618        C619   1.403       .  A
C619        C620   1.392       .  A
C619        H623   1.083       .  S
C620        H624   1.083       .  S
C625        C626   1.408       .  A
C625        C630   1.399       .  A
C625        H635   1.082       .  S
C626        C631   1.497       .  S
C626        C627   1.410       .  A
C627        C628   1.402       .  A
C627        H632   1.082       .  S
C628        C629   1.404       .  A
C628        H633   1.083       .  S
C629        C630   1.405       .  A
C630        H634   1.083       .  S
C631        C636   1.410       .  A
C631        C640   1.407       .  A
C636        C637   1.403       .  A
C636        H641   1.082       .  S
C637        C638   1.405       .  A
C637        H642   1.083       .  S
C638        C639   1.404       .  A
C639        C640   1.397       .  A
C639        H643   1.083       .  S
C640        H644   1.082       .  S
C645        C646   1.410       .  A
C645        C650   1.406       .  A
C645        H655   1.082       .  S
C646        C651   1.496       .  S
C646        C647   1.407       .  A
C647        C648   1.396       .  A
C647        H652   1.082       .  S
C648        C649   1.405       .  A
C648        H653   1.083       .  S
C649        C650   1.406       .  A
C650        H654   1.083       .  S
C651        C656   1.409       .  A
C651        C660   1.408       .  A
C656        C657   1.405       .  A
C656        H661   1.082       .  S
C657        C658   1.406       .  A
C657        H662   1.083       .  S
C658        C659   1.404       .  A
C659        C660   1.398       .  A
C659        H663   1.083       .  S
C660        H664   1.083       .  S
C665        C666   1.407       .  A
C665        C670   1.397       .  A
C665        H675   1.082       .  S
C666        C671   1.491       .  S
C666        C667   1.409       .  A
C667        C668   1.398       .  A
C667        H672   1.082       .  S
C668        C669   1.403       .  A
C668        H673   1.083       .  S
C669        C670   1.404       .  A
C670        H674   1.083       .  S
C671        C676   1.409       .  A
C671        C680   1.406       .  A
C676        C677   1.399       .  A
C676        H681   1.082       .  S
C677        C678   1.403       .  A
C677        H682   1.083       .  S
C678        C679   1.405       .  A
C679        C680   1.397       .  A
C679        H683   1.083       .  S
C680        H684   1.082       .  S
C685        C686   1.406       .  A
C685        C690   1.394       .  A
C685        H695   1.082       .  S
C686        C691   1.494       .  S
C686        C687   1.409       .  A
C687        C688   1.405       .  A
C687        H692   1.082       .  S
C688        C689   1.406       .  A
C688        H693   1.083       .  S
C689        C690   1.404       .  A
C690        H694   1.083       .  S
C691        C696   1.407       .  A
C691        C700   1.409       .  A
C696        C697   1.395       .  A
C696        H701   1.083       .  S
C697        C698   1.404       .  A
C697        H702   1.083       .  S
C698        C699   1.406       .  A
C699        C700   1.405       .  A
C699        H703   1.083       .  S
C700        H704   1.082       .  S
C705        C706   1.408       .  A
C705        C710   1.395       .  A
C705        H715   1.083       .  S
C706        C711   1.488   1_545  S
C706        C707   1.406       .  A
C707        C708   1.401       .  A
C707        H712   1.082       .  S
C708        C709   1.405       .  A
C708        H713   1.083       .  S
C709        C710   1.403       .  A
C710        H714   1.083       .  S
C711        C716   1.405       .  A
C711        C720   1.409       .  A
C716        C717   1.392       .  A
C716        H721   1.083       .  S
C717        C718   1.404       .  A
C717        H722   1.083       .  S
C718        C719   1.404       .  A
C719        C720   1.403       .  A
C719        H723   1.083       .  S
C720        H724   1.082       .  S
C725        C726   1.408       .  A
C725        C730   1.397       .  A
C725        H735   1.082       .  S
C726        C731   1.490       .  S
C726        C727   1.408       .  A
C727        C728   1.397       .  A
C727        H732   1.082       .  S
C728        C729   1.403       .  A
C728        H733   1.083       .  S
C729        C730   1.403       .  A
C730        H734   1.083       .  S
C731        C736   1.408       .  A
C731        C740   1.407       .  A
C736        C737   1.397       .  A
C736        H741   1.082       .  S
C737        C738   1.404       .  A
C737        H742   1.083       .  S
C738        C739   1.403       .  A
C739        C740   1.397       .  A
C739        H743   1.083       .  S
C740        H744   1.082       .  S
C745        C746   1.407       .  A
C745        C750   1.403       .  A
C745        H755   1.083       .  S
C746        C751   1.487       .  S
C746        C747   1.405       .  A
C747        C748   1.395       .  A
C747        H752   1.083       .  S
C748        C749   1.405       .  A
C748        H753   1.083       .  S
C749        C750   1.405       .  A
C750        H754   1.083       .  S
C751        C756   1.407       .  A
C751        C760   1.405       .  A
C756        C757   1.403       .  A
C756        H761   1.083       .  S
C757        C758   1.406       .  A
C757        H762   1.083       .  S
C758        C759   1.404       .  A
C759        C760   1.395       .  A
C759        H763   1.083       .  S
C760        H764   1.083       .  S
C765        C766   1.405       .  A
C765        C770   1.395       .  A
C765        H775   1.083       .  S
C766        C771   1.489       .  S
C766        C767   1.408       .  A
C767        C768   1.402       .  A
C767        H772   1.083       .  S
C768        C769   1.405       .  A
C768        H773   1.083       .  S
C769        C770   1.404       .  A
C770        H774   1.083       .  S
C771        C776   1.408       .  A
C771        C780   1.405       .  A
C776        C777   1.399       .  A
C776        H781   1.083       .  S
C777        C778   1.403       .  A
C777        H782   1.083       .  S
C778        C779   1.406       .  A
C779        C780   1.398       .  A
C779        H783   1.083       .  S
C780        H784   1.083       .  S
C785        C786   1.404       .  A
C785        C790   1.393       .  A
C785        H795   1.083       .  S
C786        C791   1.489       .  S
C786        C787   1.409       .  A
C787        C788   1.406       .  A
C787        H792   1.083       .  S
C788        C789   1.406       .  A
C788        H793   1.083       .  S
C789        C790   1.404       .  A
C790        H794   1.083       .  S
C791        C796   1.406       .  A
C791        C800   1.407       .  A
C796        C797   1.395       .  A
C796        H801   1.083       .  S
C797        C798   1.404       .  A
C797        H802   1.083       .  S
C798        C799   1.405       .  A
C799        C800   1.402       .  A
C799        H803   1.083       .  S
C800        H804   1.083       .  S
C805        C806   1.407       .  A
C805        C810   1.401       .  A
C805        H815   1.083       .  S
C806        C811   1.483   1_545  S
C806        C807   1.405       .  A
C807        C808   1.390       .  A
C807        H812   1.083       .  S
C808        C809   1.403       .  A
C808        H813   1.083       .  S
C809        C810   1.404       .  A
C810        H814   1.083       .  S
C811        C816   1.405       .  A
C811        C820   1.406       .  A
C816        C817   1.391       .  A
C816        H821   1.083       .  S
C817        C818   1.402       .  A
C817        H822   1.083       .  S
C818        C819   1.406       .  A
C819        C820   1.401       .  A
C819        H823   1.083       .  S
C820        H824   1.083       .  S
