geometry optimzed in LAMMPS
_audit_creation_date              2020-12-01 
_audit_creation_method            'lammps2cif' 
_symmetry_space_group_name_H-M    'P1' 
_symmetry_Int_Tables_number       1 
_symmetry_cell_setting            triclinic 
loop_ 
_symmetry_equiv_pos_as_xyz 
  x,y,z 
_cell_length_a                    30.61473608 
_cell_length_b                    30.87114296939759 
_cell_length_c                    37.138869589803946 
_cell_angle_alpha                 89.87033707669865 
_cell_angle_beta                  90.32408059353317 
_cell_angle_gamma                 90.02664988531005 
loop_ 
_atom_site_label 
_atom_site_type_symbol 
_atom_site_fract_x 
_atom_site_fract_y 
_atom_site_fract_z 
_atom_site_charge 
N1          N  0.96634501  0.75839497  0.32697385    -0.01500
C2          C  0.95919106  0.71611418  0.31925756     0.01100
C3          C  0.94308794  0.69471302  0.01600548    -0.21800
C4          C  0.94041638  0.72492597  0.04312453    -0.22000
C5          C  0.95525798  0.76369400  0.02895352     0.01000
H6          H  0.93634799  0.66040447  0.01834852     0.14800
H7          H  0.93159809  0.71854645  0.07081235     0.14800
N8          N  0.03832326  0.22836047  0.00186535    -0.01500
C9          C  0.04055312  0.27172300  0.00752771     0.01100
C10         C  0.05054923  0.29300924  0.30940276    -0.21800
C11         C  0.05468221  0.26161567  0.28334771    -0.22000
C12         C  0.04702849  0.22226815  0.30002645     0.01000
H13         H  0.05292513  0.32766247  0.30538469     0.14800
H14         H  0.06030625  0.26709050  0.25495601     0.14800
N15         N  0.74040639  0.95962564  0.32502302    -0.01500
C16         C  0.78144959  0.94745955  0.31606802     0.01100
C17         C  0.80217816  0.92830439  0.01179942    -0.21800
C18         C  0.77255825  0.92818271  0.03959100    -0.22000
C19         C  0.73494179  0.94755691  0.02648295     0.01000
H20         H  0.83554521  0.91679058  0.01295027     0.14800
H21         H  0.77831801  0.91649115  0.06669345     0.14800
N22         N  0.26869767  0.03131765  0.99798996    -0.01500
C23         C  0.22583203  0.03705903  0.00555531     0.01100
C24         C  0.20331746  0.05005556  0.30845422    -0.21800
C25         C  0.23349231  0.05284154  0.28117234    -0.22000
C26         C  0.27326928  0.04083192  0.29590453     0.01000
H27         H  0.16845408  0.05515277  0.30597620     0.14800
H28         H  0.22664143  0.06001749  0.25316767     0.14800
N29         N  0.54596168  0.73238753  0.32715517    -0.01500
C30         C  0.55174902  0.77516072  0.32017273     0.01100
C31         C  0.56523041  0.79651452  0.01787371    -0.21800
C32         C  0.56808646  0.76561296  0.04463831    -0.22000
C33         C  0.55595070  0.72666103  0.02922910     0.01000
H34         H  0.57046728  0.83098321  0.02097546     0.14800
H35         H  0.57546009  0.77140946  0.07275215     0.14800
N36         N  0.46479914  0.26355924  0.00434278    -0.01500
C37         C  0.45201027  0.22276849  0.01288404     0.01100
C38         C  0.43339906  0.20279758  0.31661386    -0.21800
C39         C  0.43516362  0.23226415  0.28879882    -0.22000
C40         C  0.45421170  0.26932688  0.30255746     0.01000
H41         H  0.42211080  0.16963364  0.31486499     0.14800
H42         H  0.42549602  0.22660948  0.26113202     0.14800
N43         N  0.24255616  0.45257645  0.00316610    -0.01500
C44         C  0.28486872  0.44421696  0.01153870     0.01100
C45         C  0.30592428  0.42641336  0.31548082    -0.21800
C46         C  0.27545613  0.42385241  0.28813264    -0.22000
C47         C  0.23687392  0.44039205  0.30161256     0.01000
H48         H  0.34022107  0.41826591  0.31366112     0.14800
H49         H  0.28157013  0.41361258  0.26077322     0.14800
N50         N  0.77360805  0.53569217  0.32800592    -0.01500
C51         C  0.73192766  0.54510534  0.31879099     0.01100
C52         C  0.71018297  0.56399625  0.01414097    -0.21800
C53         C  0.74010620  0.56653431  0.04194856    -0.22000
C54         C  0.77850936  0.54887409  0.02920202     0.01000
H55         H  0.67609768  0.57317321  0.01516331     0.14800
H56         H  0.73383013  0.57771624  0.06902511     0.14800
O57         O  0.60964456  0.45911976  0.19474556    -0.78900
O58         O  0.41618486  0.46323285  0.14642770    -0.63600
O59         O  0.53913520  0.47893327  0.14874424    -1.10200
C60         C  0.50376131  0.59650699  0.22631444     1.08000
O61         O  0.40563269  0.53304232  0.13591099    -0.76800
O62         O  0.47064422  0.59112902  0.13850072    -0.64400
Ni63       Ni  0.57869214  0.43196734  0.15516060     1.34900
C64         C  0.51050089  0.59076176  0.12929988     0.86700
O65         O  0.48138788  0.42202938  0.11456377    -0.77300
O66         O  0.55158089  0.40040955  0.11605836    -0.87600
C67         C  0.39549175  0.49344143  0.13071692     0.86300
O68         O  0.54543647  0.39997141  0.18938323    -0.65800
O69         O  0.46562164  0.59520819  0.21204112    -0.85100
C70         C  0.50613692  0.40081612  0.20014752     0.87100
C71         C  0.51237182  0.39749197  0.10428854     1.08700
H72         H  0.46868298  0.50296575  0.20548348     0.40500
O73         O  0.47641876  0.51472660  0.18228977    -1.07800
O74         O  0.53892872  0.56662533  0.14452929    -0.64400
Ni75       Ni  0.53767191  0.52457399  0.18329812     1.26300
O76         O  0.47784485  0.42714246  0.18751667    -0.64600
O77         O  0.53417520  0.57027224  0.21785690    -0.76900
C78         C  0.62049343  0.49843125  0.20027933     0.86500
O79         O  0.59958790  0.52927126  0.18561312    -0.64100
Ni80       Ni  0.43748804  0.56190055  0.17432646     1.27400
Ni81       Ni  0.47802558  0.46851721  0.14830788     1.26100
H82         H  0.54623661  0.49126191  0.12555519     0.41000
O83         O  0.46754209  0.89213583  0.19102359    -0.78900
O84         O  0.46893099  0.08398339  0.14265427    -0.63600
O85         O  0.48708472  0.96247232  0.14473634    -1.10200
C86         C  0.60363399  0.99951010  0.22336663     1.08000
O87         O  0.53866506  0.09813191  0.13364085    -0.76800
O88         O  0.59656621  0.03248770  0.13410885    -0.64400
Ni89       Ni  0.43963071  0.92319294  0.15163494     1.34900
C90         C  0.59810261  0.99249937  0.12635171     0.86700
O91         O  0.43059309  0.01904439  0.10867813    -0.77300
O92         O  0.40701857  0.95039846  0.11297215    -0.87600
C93         C  0.49839887  0.10725051  0.12884428     0.86300
O94         O  0.40850433  0.95576761  0.18662138    -0.65800
O95         O  0.60341412  0.03643955  0.20766820    -0.85100
C96         C  0.40904562  0.99516463  0.19624886     0.87100
C97         C  0.40526153  0.98837784  0.09918113     1.08700
H98         H  0.50917278  0.03384019  0.20167212     0.40500
O99         O  0.52148003  0.02585699  0.17876790    -1.07800
O100        O  0.57557843  0.96396944  0.14277145    -0.64400
Ni101      Ni  0.53199839  0.96516045  0.18033787     1.26300
O102        O  0.43378392  0.02333150  0.18194231    -0.64600
O103        O  0.57638160  0.96969557  0.21601599    -0.76900
C104        C  0.50733045  0.88302752  0.19797102     0.86500
O105        O  0.53801508  0.90393104  0.18322981    -0.64100
Ni106      Ni  0.56872425  0.06494843  0.17088192     1.27400
Ni107      Ni  0.47604225  0.02311197  0.14380404     1.26100
H108        H  0.49990445  0.95495507  0.12189409     0.41000
O109        O  0.90569598  0.02766368  0.19244484    -0.78900
O110        O  0.10073009  0.02462712  0.14379919    -0.63600
O111        O  0.97747581  0.00915427  0.14749275    -1.10200
C112        C  0.01342260  0.89231324  0.22592358     1.08000
O113        O  0.11198217  0.95445119  0.13588753    -0.76800
O114        O  0.04622896  0.89736709  0.13759534    -0.64400
Ni115      Ni  0.93851683  0.05637250  0.15514985     1.34900
C116        C  0.00597590  0.89749185  0.12925237     0.86700
O117        O  0.03478186  0.06508698  0.11146217    -0.77300
O118        O  0.96676288  0.09024710  0.11850044    -0.87600
C119        C  0.12146110  0.99387735  0.12918036     0.86300
O120        O  0.97158666  0.08380422  0.19206439    -0.65800
O121        O  0.05115562  0.89241654  0.21126785    -0.85100
C122        C  0.01159269  0.08378147  0.20115618     0.87100
C123        C  0.00423986  0.09162256  0.10371314     1.08700
H124        H  0.04947156  0.98597033  0.20417059     0.40500
O125        O  0.04119519  0.97383225  0.18118619    -1.07800
O126        O  0.97806739  0.92149904  0.14474180    -0.64400
Ni127      Ni  0.97987387  0.96407660  0.18260126     1.26300
O128        O  0.04041929  0.06127880  0.18508830    -0.64600
O129        O  0.98380214  0.91948882  0.21777391    -0.76900
C130        C  0.89596573  0.98826161  0.19842504     0.86500
O131        O  0.91817209  0.95797379  0.18482269    -0.64100
Ni132      Ni  0.07962664  0.92594165  0.17387752     1.27400
Ni133      Ni  0.03887208  0.01940769  0.14629687     1.26100
H134        H  0.96933675  0.99682089  0.12450686     0.41000
O135        O  0.04689100  0.59699864  0.19445263    -0.78900
O136        O  0.03768440  0.40442057  0.14169966    -0.63600
O137        O  0.02599342  0.52700840  0.14851230    -1.10200
C138        C  0.90963490  0.49132771  0.22827846     1.08000
O139        O  0.96644204  0.39523828  0.13528173    -0.76800
O140        O  0.91017345  0.46083377  0.14128487    -0.64400
Ni141      Ni  0.07495679  0.56402742  0.15656614     1.34900
C142        C  0.91214184  0.50009492  0.13126110     0.86700
O143        O  0.07838116  0.46982383  0.11012418    -0.77300
O144        O  0.10825733  0.53517625  0.11939217    -0.87600
C145        C  0.00552814  0.38444786  0.12787256     0.86300
O146        O  0.10186020  0.52968858  0.19290401    -0.65800
O147        O  0.91052362  0.45338660  0.21463532    -0.85100
C148        C  0.10183790  0.48951670  0.20017893     0.87100
C149        C  0.10700697  0.49856024  0.10334073     1.08700
H150        H  0.00298687  0.45570952  0.20426968     0.40500
O151        O  0.98987541  0.46401510  0.18171946    -1.07800
O152        O  0.93817855  0.52743524  0.14531568    -0.64400
Ni153      Ni  0.98081796  0.52500193  0.18360539     1.26300
O154        O  0.07828781  0.46212310  0.18327111    -0.64600
O155        O  0.93549683  0.52145908  0.21861422    -0.76900
C156        C  0.00722380  0.60717823  0.20044901     0.86500
O157        O  0.97606196  0.58631264  0.18619580    -0.64100
Ni158      Ni  0.94106727  0.42629216  0.17531991     1.27400
Ni159      Ni  0.03418238  0.46594607  0.14581059     1.26100
H160        H  0.01354110  0.53613358  0.12570344     0.41000
C161        C  0.82973688  0.49471447  0.05519835     0.25600
C162        C  0.81639469  0.53799875  0.05219468    -0.22500
C163        C  0.83681554  0.56967702  0.07349229     0.20500
C164        C  0.86951371  0.55797148  0.09821781     0.25500
C165        C  0.88179221  0.51416294  0.10224016    -0.22500
C166        C  0.86236323  0.48295015  0.07957185     0.20400
F167        F  0.87411335  0.44058105  0.08145419    -0.12400
F168        F  0.80911664  0.46312335  0.03628987    -0.14800
F169        F  0.88764140  0.58922752  0.11918662    -0.14800
F170        F  0.82446877  0.61180097  0.07079850    -0.12400
C171        C  0.84412431  0.47061120  0.26592512     0.25600
C172        C  0.87593846  0.50155567  0.25589421    -0.22500
C173        C  0.87350957  0.54344997  0.27110756     0.20500
C174        C  0.84000270  0.55407659  0.29484519     0.25500
C175        C  0.80808080  0.52354380  0.30392839    -0.22500
C176        C  0.81045643  0.48168253  0.28956197     0.20400
F177        F  0.78059707  0.45127062  0.29888032    -0.12400
F178        F  0.84503858  0.42968386  0.25265379    -0.14800
F179        F  0.83773576  0.59473204  0.97530444    -0.14800
F180        F  0.90302469  0.57469217  0.26274135    -0.12400
C181        C  0.70456566  0.55930751  0.25637984     0.25600
C182        C  0.70975112  0.53095246  0.28561412    -0.22500
C183        C  0.68893780  0.49056424  0.28513024     0.20500
C184        C  0.66209462  0.47895523  0.25624082     0.25500
C185        C  0.65467918  0.50816755  0.22757631    -0.22500
C186        C  0.67706402  0.54811649  0.22754226     0.20400
F187        F  0.67159425  0.57669452  0.20005243    -0.12400
F188        F  0.72473508  0.59847669  0.25651050    -0.14800
F189        F  0.64100451  0.44028492  0.25772860    -0.14800
F190        F  0.69283864  0.46313913  0.98009312    -0.12400
C191        C  0.18225592  0.42054259  0.25358682     0.25600
C192        C  0.19820365  0.45067061  0.27884501    -0.22500
C193        C  0.18010754  0.49245423  0.27945233     0.20500
C194        C  0.14691925  0.50399581  0.25539814     0.25500
C195        C  0.13196341  0.47451532  0.22912352    -0.22500
C196        C  0.14938029  0.43228107  0.22898688     0.20400
F197        F  0.13645277  0.40305506  0.20381816    -0.12400
F198        F  0.19960148  0.38026734  0.91860103    -0.14800
F199        F  0.13045826  0.54478001  0.25718164    -0.14800
F200        F  0.19686034  0.52349192  0.30132372    -0.12400
C201        C  0.20983798  0.50488333  0.04580734     0.25600
C202        C  0.20857162  0.46497459  0.02779992    -0.22500
C203        C  0.17318760  0.43704213  0.03354126     0.20500
C204        C  0.13992561  0.44821674  0.05736829     0.25500
C205        C  0.14115912  0.48803855  0.07613634    -0.22500
C206        C  0.17653189  0.51641109  0.06967951     0.20400
F207        F  0.17930255  0.55529899  0.08653333    -0.12400
F208        F  0.24242128  0.53362647  0.37222616    -0.14800
F209        F  0.10681608  0.41951343  0.06214959    -0.14800
F210        F  0.17134613  0.39826510  0.01643527    -0.12400
C211        C  0.33237424  0.49723185  0.04288029     0.25600
C212        C  0.30808627  0.45878068  0.04427227    -0.22500
C213        C  0.31063348  0.43246808  0.07506448     0.20500
C214        C  0.33807204  0.44411648  0.10391087     0.25500
C215        C  0.36276311  0.48265758  0.10246705    -0.22500
C216        C  0.35900592  0.50938544  0.07176959     0.20400
F217        F  0.38334244  0.54597249  0.06856085    -0.12400
F218        F  0.33133630  0.52240938  0.01284003    -0.14800
F219        F  0.34103778  0.41743776  0.13292485    -0.14800
F220        F  0.28865934  0.39399692  0.40948436    -0.12400
C221        C  0.50608762  0.19697409  0.05885971     0.25600
C222        C  0.46264270  0.19961894  0.04674704    -0.22500
C223        C  0.43036694  0.17548548  0.06441726     0.20500
C224        C  0.44146227  0.14790945  0.09294832     0.25500
C225        C  0.48554173  0.14279854  0.10369269    -0.22500
C226        C  0.51749807  0.16886380  0.08700503     0.20400
F227        F  0.56024391  0.16577161  0.09659651    -0.12400
F228        F  0.53817404  0.21889022  0.04151564    -0.14800
F229        F  0.40907097  0.12466112  0.10869267    -0.14800
F230        F  0.38811641  0.17752233  0.05319955    -0.12400
C231        C  0.50673917  0.30022499  0.25927236     0.25600
C232        C  0.46872518  0.30547053  0.27954382    -0.22500
C233        C  0.44255006  0.34219158  0.27400958     0.20500
C234        C  0.45459398  0.37364048  0.24850829     0.25500
C235        C  0.49310561  0.36863859  0.22812397    -0.22500
C236        C  0.51895230  0.33132707  0.23396791     0.20400
F237        F  0.55525103  0.32367751  0.21411952    -0.12400
F238        F  0.53154718  0.26404488  0.26333977    -0.14800
F239        F  0.42832406  0.40859107  0.24357656    -0.14800
F240        F  0.40465907  0.34682415  0.29241661    -0.12400
C241        C  0.51831195  0.31804894  0.02627082     0.25600
C242        C  0.47798287  0.29662663  0.02948104    -0.22500
C243        C  0.44999985  0.30774779  0.05778545     0.20500
C244        C  0.46139258  0.34050903  0.08190162     0.25500
C245        C  0.50129982  0.36274865  0.07839321    -0.22500
C246        C  0.53005819  0.35072387  0.05071289     0.20400
F247        F  0.56908613  0.37107916  0.04694414    -0.12400
F248        F  0.54652644  0.30674856  0.33343663    -0.14800
F249        F  0.43376774  0.34976028  0.10933006    -0.14800
F250        F  0.41119608  0.28704969  0.06177208    -0.12400
C251        C  0.49886953  0.81953235  0.28512321     0.25600
C252        C  0.53914861  0.79803920  0.28667573    -0.22500
C253        C  0.56876945  0.80312591  0.25826064     0.20500
C254        C  0.55819022  0.82965174  0.22865300     0.25500
C255        C  0.51752227  0.85110962  0.22692747    -0.22500
C256        C  0.48779425  0.84514624  0.25540034     0.20400
F257        F  0.44892389  0.86630330  0.25571984    -0.12400
F258        F  0.47071228  0.81687690  0.31317541    -0.14800
F259        F  0.58801262  0.83499042  0.20209126    -0.14800
F260        F  0.60864218  0.78399521  0.25998790    -0.12400
C261        C  0.50350912  0.67114958  0.05185971     0.25600
C262        C  0.54634476  0.68718526  0.05052708    -0.22500
C263        C  0.57840311  0.66878223  0.07302274     0.20500
C264        C  0.56749058  0.63578929  0.09741745     0.25500
C265        C  0.52399583  0.62105721  0.10009316    -0.22500
C266        C  0.49243145  0.63841122  0.07621362     0.20400
F267        F  0.45028704  0.62470345  0.07705591    -0.12400
F268        F  0.47150817  0.68932465  0.03139566    -0.14800
F269        F  0.59904838  0.62008884  0.11970509    -0.14800
F270        F  0.62010710  0.68368718  0.07205146    -0.12400
C271        C  0.49467008  0.69840408  0.28395012     0.25600
C272        C  0.53511203  0.69873605  0.30182365    -0.22500
C273        C  0.56459163  0.66478129  0.29590584     0.20500
C274        C  0.55421009  0.63123907  0.27208189     0.25500
C275        C  0.51378890  0.63092076  0.25342622    -0.22500
C276        C  0.48403058  0.66499073  0.25999558     0.20400
F277        F  0.44456908  0.66638765  0.24318920    -0.12400
F278        F  0.46475807  0.72967135  0.29065374    -0.14800
F279        F  0.58399917  0.59917702  0.26744178    -0.14800
F280        F  0.60387834  0.66446055  0.31304674    -0.12400
C281        C  0.17671084  0.04268647  0.09888422     0.25600
C282        C  0.15313239  0.00343051  0.10008011    -0.22500
C283        C  0.15639058  0.97458461  0.07083027     0.20500
C284        C  0.18085592  0.98550383  0.04060044     0.25500
C285        C  0.20396810  0.02462993  0.03932360    -0.22500
C286        C  0.20230333  0.05299130  0.06875342     0.20400
F287        F  0.22386773  0.09139608  0.06756768    -0.12400
F288        F  0.17445103  0.07128670  0.12651859    -0.14800
F289        F  0.18145868  0.95784993  0.34546776    -0.14800
F290        F  0.13361234  0.93683655  0.07032546    -0.12400
C291        C  0.36286620  0.97823446  0.24996830     0.25600
C292        C  0.37842367  0.00876577  0.22486107    -0.22500
C293        C  0.36189347  0.05136985  0.22585048     0.20500
C294        C  0.32883808  0.06234950  0.25007951     0.25500
C295        C  0.31225233  0.03123784  0.27402061    -0.22500
C296        C  0.32999803  0.98932458  0.27413861     0.20400
F297        F  0.31320337  0.95802914  0.96247724    -0.12400
F298        F  0.37866512  0.93714320  0.25060282    -0.14800
F299        F  0.31217245  0.10310154  0.24955152    -0.14800
F300        F  0.37589796  0.08179991  0.20210553    -0.12400
C301        C  0.33974455  0.04695732  0.02658163     0.25600
C302        C  0.30322213  0.01983000  0.02277596    -0.22500
C303        C  0.30159456  0.98106513  0.04252517     0.20500
C304        C  0.33479518  0.97054808  0.06701785     0.25500
C305        C  0.37125469  0.99801278  0.07146463    -0.22500
C306        C  0.37366190  0.03599679  0.05025994     0.20400
F307        F  0.40893993  0.06256677  0.05210109    -0.12400
F308        F  0.34229977  0.08445963  0.00753830    -0.14800
F309        F  0.33070347  0.93366962  0.08668583    -0.14800
F310        F  0.26884091  0.95219360  0.37022471    -0.12400
C311        C  0.84570204  0.93547780  0.22999289     0.25600
C312        C  0.86098831  0.97820409  0.22482429    -0.22500
C313        C  0.84607271  0.01095056  0.24821132     0.20500
C314        C  0.81885855  0.00087751  0.27700108     0.25500
C315        C  0.80408349  0.95843555  0.28228677    -0.22500
C316        C  0.81735364  0.92580216  0.25846840     0.20400
F317        F  0.80448988  0.88420677  0.26385082    -0.12400
F318        F  0.85942733  0.90273472  0.20848532    -0.14800
F319        F  0.81018080  0.03213425  0.96801080    -0.14800
F320        F  0.86042702  0.05242290  0.24517774    -0.12400
C321        C  0.67970117  0.99964697  0.05010076     0.25600
C322        C  0.69611950  0.95728391  0.04872719    -0.22500
C323        C  0.67789881  0.92546310  0.07124312     0.20500
C324        C  0.64456259  0.93614116  0.09541252     0.25500
C325        C  0.62892006  0.97904928  0.09756264    -0.22500
C326        C  0.64611224  0.01028914  0.07371310     0.20400
F327        F  0.63148847  0.05181962  0.07388496    -0.12400
F328        F  0.69864626  0.03159446  0.36404363    -0.14800
F329        F  0.62922635  0.90488588  0.11780022    -0.14800
F330        F  0.69314718  0.88418326  0.07043797    -0.12400
C331        C  0.66801660  0.02226299  0.26166892     0.25600
C332        C  0.63787071  0.99011528  0.25094170    -0.22500
C333        C  0.64180923  0.94820798  0.26611359     0.20500
C334        C  0.67550304  0.93870039  0.29033704     0.25500
C335        C  0.70591379  0.97049562  0.30014374    -0.22500
C336        C  0.70161046  0.01247012  0.28601806     0.20400
F337        F  0.72856490  0.04488001  0.96366327    -0.12400
F338        F  0.66508210  0.06339814  0.24887092    -0.14800
F339        F  0.67887149  0.89806184  0.30411200    -0.14800
F340        F  0.61351808  0.91596220  0.25736452    -0.12400
C341        C  0.99353793  0.12439828  0.25745614     0.25600
C342        C  0.02450380  0.11289031  0.23117561    -0.22500
C343        C  0.06554244  0.13346889  0.23163813     0.20500
C344        C  0.07378890  0.16751366  0.25566751     0.25500
C345        C  0.04153213  0.18108750  0.27996988    -0.22500
C346        C  0.00179878  0.15838845  0.28133784     0.20400
F347        F  0.96936185  0.17136235  0.30358975    -0.12400
F348        F  0.95430082  0.10392415  0.25907316    -0.14800
F349        F  0.11268363  0.18855626  0.25418214    -0.14800
F350        F  0.09657060  0.12282697  0.20723795    -0.12400
C351        C  0.06082729  0.16180249  0.03344254     0.25600
C352        C  0.03017564  0.19498840  0.02808672    -0.22500
C353        C  0.99060819  0.19368005  0.04680319     0.20500
C354        C  0.98183921  0.15989521  0.07082813     0.25500
C355        C  0.01277415  0.12655892  0.07681747    -0.22500
C356        C  0.05240043  0.12796543  0.05753175     0.20400
F357        F  0.08309792  0.09657698  0.06164913    -0.12400
F358        F  0.09970755  0.16257537  0.34904319    -0.14800
F359        F  0.94282340  0.16004005  0.08802969    -0.14800
F360        F  0.95951802  0.22410086  0.04053668    -0.12400
C361        C  0.99034000  0.31802346  0.04291090     0.25600
C362        C  0.02961440  0.29482084  0.04117197    -0.22500
C363        C  0.06026628  0.29898076  0.06922691     0.20500
C364        C  0.05217716  0.32706596  0.09820532     0.25500
C365        C  0.01299152  0.35102361  0.09968836    -0.22500
C366        C  0.98178177  0.34532359  0.07198083     0.20400
F367        F  0.94392669  0.36823893  0.07170018    -0.12400
F368        F  0.96074439  0.31534802  0.01561908    -0.14800
F369        F  0.08293060  0.33136496  0.12442872    -0.14800
F370        F  0.09891392  0.27756761  0.06760771    -0.12400
C371        C  0.00806648  0.82012986  0.05025216     0.25600
C372        C  0.96599373  0.80197410  0.05139602    -0.22500
C373        C  0.93626453  0.81708013  0.07723227     0.20500
C374        C  0.94856470  0.84940168  0.10169512     0.25500
C375        C  0.99098996  0.86710003  0.10087009    -0.22500
C376        C  0.02025633  0.85262796  0.07437397     0.20400
F377        F  0.06135514  0.86898301  0.07239500    -0.12400
F378        F  0.03879198  0.80410253  0.02776292    -0.14800
F379        F  0.91978131  0.86145131  0.12749562    -0.14800
F380        F  0.89570175  0.79951645  0.07956664    -0.12400
C381        C  0.03056370  0.82293250  0.25955531     0.25600
C382        C  0.00249939  0.85844010  0.25317530    -0.22500
C383        C  0.96252429  0.86017835  0.27209622     0.20500
C384        C  0.95097284  0.82728974  0.29611848     0.25500
C385        C  0.97880853  0.79194088  0.30201023    -0.24100
C386        C  0.01881529  0.79017987  0.28378745     0.20400
F387        F  0.04734770  0.75755419  0.29050219    -0.12400
F388        F  0.06930363  0.81945022  0.24220760    -0.14800
F389        F  0.91202284  0.82953835  0.31331385    -0.14800
F390        F  0.93417191  0.89356814  0.26743207    -0.12400
C391        C  0.01201732  0.66867823  0.28810866     0.25600
C392        C  0.97372540  0.69347945  0.28652091    -0.22500
C393        C  0.94791057  0.69279246  0.25519987     0.20500
C394        C  0.95942780  0.66596122  0.22626594     0.25500
C395        C  0.99744233  0.64023073  0.22816541    -0.22500
C396        C  0.02414073  0.64280034  0.25909720     0.20400
F397        F  0.06052944  0.61794162  0.26239687    -0.12400
F398        F  0.03718646  0.66873189  0.31834930    -0.14800
F399        F  0.93312612  0.66454811  0.19674174    -0.14800
F400        F  0.91067872  0.71657855  0.25333295    -0.12400
N401        N  0.96604277  0.75832977  0.66031189    -0.01500
C402        C  0.95859527  0.71613901  0.65246258     0.01100
C403        C  0.94343939  0.69468282  0.34919326    -0.21800
C404        C  0.94070128  0.72492456  0.37628425    -0.22000
C405        C  0.95535361  0.76373161  0.36205413     0.01000
H406        H  0.93685980  0.66034868  0.35158740     0.14800
H407        H  0.93198847  0.71854477  0.40399517     0.14800
N408        N  0.03874226  0.22843039  0.33550573    -0.01500
C409        C  0.04087570  0.27179177  0.34118387     0.01100
C410        C  0.05125846  0.29297767  0.64286934    -0.21800
C411        C  0.05536798  0.26163837  0.61676859    -0.22000
C412        C  0.04730069  0.22229603  0.63331934     0.01000
H413        H  0.05390361  0.32762569  0.63893570     0.14800
H414        H  0.06125337  0.26716278  0.58842066     0.14800
N415        N  0.74043689  0.95979347  0.65827198    -0.01500
C416        C  0.78134322  0.94732997  0.64917687     0.01100
C417        C  0.80206749  0.92812623  0.34511051    -0.21800
C418        C  0.77239651  0.92789100  0.37286767    -0.22000
C419        C  0.73477787  0.94723636  0.35974190     0.01000
H420        H  0.83545995  0.91668883  0.34629115     0.14800
H421        H  0.77813618  0.91618914  0.39996984     0.14800
N422        N  0.26868835  0.03121587  0.33131333    -0.01500
C423        C  0.22582851  0.03689105  0.33892328     0.01100
C424        C  0.20347222  0.05024752  0.64187991    -0.21800
C425        C  0.23364729  0.05305160  0.61460257    -0.22000
C426        C  0.27340642  0.04095510  0.62931384     0.01000
H427        H  0.16861377  0.05538092  0.63940550     0.14800
H428        H  0.22680056  0.06027166  0.58660490     0.14800
N429        N  0.54567526  0.73248405  0.66048676    -0.01500
C430        C  0.55148362  0.77526852  0.65358872     0.01100
C431        C  0.56521043  0.79640852  0.35102676    -0.21800
C432        C  0.56804845  0.76555806  0.37783268    -0.22000
C433        C  0.55586727  0.72658306  0.36248436     0.01000
H434        H  0.57048131  0.83087843  0.35408123     0.14800
H435        H  0.57545013  0.77140700  0.40593405     0.14800
N436        N  0.46468958  0.26358903  0.33776471    -0.01500
C437        C  0.45189670  0.22278904  0.34628454     0.01100
C438        C  0.43310498  0.20281599  0.65013137    -0.21800
C439        C  0.43488632  0.23221109  0.62226342    -0.22000
C440        C  0.45389770  0.26931991  0.63596934     0.01000
H441        H  0.42186761  0.16963196  0.64842205     0.14800
H442        H  0.42526737  0.22647322  0.59459734     0.14800
N443        N  0.24256370  0.45253620  0.33645674    -0.01500
C444        C  0.28484655  0.44401192  0.34480636     0.01100
C445        C  0.30590056  0.42641869  0.64925271    -0.21800
C446        C  0.27548485  0.42382920  0.62186893    -0.22000
C447        C  0.23686316  0.44030982  0.63531422     0.01000
H448        H  0.34022260  0.41836752  0.64745623     0.14800
H449        H  0.28166732  0.41366136  0.59450154     0.14800
N450        N  0.77353864  0.53607438  0.66120475    -0.01500
C451        C  0.73185263  0.54549418  0.65200674     0.01100
C452        C  0.71049187  0.56386656  0.34745398    -0.21800
C453        C  0.74042830  0.56643122  0.37525342    -0.22000
C454        C  0.77884823  0.54883790  0.36248288     0.01000
H455        H  0.67638780  0.57296920  0.34850246     0.14800
H456        H  0.73414807  0.57756740  0.40234230     0.14800
O457        O  0.60949643  0.45924069  0.52819572    -0.78900
O458        O  0.41606635  0.46314259  0.47984248    -0.63600
O459        O  0.53898576  0.47893565  0.48216989    -1.10200
C460        C  0.50354394  0.59666004  0.55955558     1.08000
O461        O  0.40545044  0.53291808  0.46923042    -0.76800
O462        O  0.47046292  0.59102847  0.47168680    -0.64400
Ni463      Ni  0.57856879  0.43199665  0.48864613     1.34900
C464        C  0.51035313  0.59070365  0.46257996     0.86700
O465        O  0.48129505  0.42195196  0.44803465    -0.77300
O466        O  0.55149477  0.40035971  0.44957186    -0.87600
C467        C  0.39536961  0.49329424  0.46406426     0.86300
O468        O  0.54532596  0.40001191  0.52289505    -0.65800
O469        O  0.46543200  0.59537157  0.54522532    -0.85100
C470        C  0.50601123  0.40084105  0.53362775     0.87100
C471        C  0.51229396  0.39741728  0.43778989     1.08700
H472        H  0.46846691  0.50303149  0.53886172     0.40500
O473        O  0.47622617  0.51475031  0.51565874    -1.07800
O474        O  0.53876318  0.56663371  0.47789731    -0.64400
Ni475      Ni  0.53747181  0.52461789  0.51668177     1.26300
O476        O  0.47772135  0.42715652  0.52097660    -0.64600
O477        O  0.53393218  0.57034948  0.55119991    -0.76900
C478        C  0.62031597  0.49857204  0.53366984     0.86500
O479        O  0.59936711  0.52936595  0.51898968    -0.64100
Ni480      Ni  0.43730305  0.56191479  0.50758201     1.27400
Ni481      Ni  0.47788960  0.46848150  0.48173073     1.26100
H482        H  0.54608887  0.49123933  0.45897207     0.41000
O483        O  0.46745215  0.89213669  0.52433642    -0.78900
O484        O  0.46879007  0.08388163  0.47597570    -0.63600
O485        O  0.48708079  0.96240033  0.47802000    -1.10200
C486        C  0.60356306  0.99947707  0.55667130     1.08000
O487        O  0.53851713  0.09808918  0.46696514    -0.76800
O488        O  0.59641310  0.03243037  0.46733205    -0.64400
Ni489      Ni  0.43965532  0.92306709  0.48483563     1.34900
C490        C  0.59803723  0.99242491  0.45964746     0.86700
O491        O  0.43052685  0.01891213  0.44197569    -0.77300
O492        O  0.40719518  0.95016219  0.44604790    -0.87600
C493        C  0.49824198  0.10718894  0.46218820     0.86300
O494        O  0.40828055  0.95563434  0.51969329    -0.65800
O495        O  0.60339480  0.03635875  0.54089469    -0.85100
C496        C  0.40887672  0.99499440  0.52942800     0.87100
C497        C  0.40534800  0.98818065  0.43234428     1.08700
H498        H  0.50910131  0.03380228  0.53497139     0.40500
O499        O  0.52140761  0.02580132  0.51207105    -1.07800
O500        O  0.57558725  0.96389806  0.47614353    -0.64400
Ni501      Ni  0.53193686  0.96511201  0.51366507     1.26300
O502        O  0.43373176  0.02315392  0.51525011    -0.64600
O503        O  0.57625638  0.96968161  0.54939780    -0.76900
C504        C  0.50722886  0.88302292  0.53131714     0.86500
O505        O  0.53793913  0.90388864  0.51657678    -0.64100
Ni506      Ni  0.56864421  0.06488271  0.50415229     1.27400
Ni507      Ni  0.47597372  0.02301855  0.47710436     1.26100
H508        H  0.49994635  0.95491645  0.45518763     0.41000
O509        O  0.90583863  0.02758074  0.52575172    -0.78900
O510        O  0.10089622  0.02439974  0.47727200    -0.63600
O511        O  0.97763029  0.00902419  0.48081213    -1.10200
C512        C  0.01334549  0.89210990  0.55921303     1.08000
O513        O  0.11207007  0.95422544  0.46927625    -0.76800
O514        O  0.04625168  0.89722684  0.47083478    -0.64400
Ni515      Ni  0.93866893  0.05623901  0.48842656     1.34900
C516        C  0.00600296  0.89740046  0.46247816     0.86700
O517        O  0.03503984  0.06498305  0.44491286    -0.77300
O518        O  0.96694701  0.09004222  0.45175798    -0.87600
C519        C  0.12158723  0.99365315  0.46260867     0.86300
O520        O  0.97172081  0.08377770  0.52529593    -0.65800
O521        O  0.05106903  0.89213716  0.54453757    -0.85100
C522        C  0.01170183  0.08371565  0.53446446     0.87100
C523        C  0.00449265  0.09148390  0.43709113     1.08700
H524        H  0.04952870  0.98570957  0.53754457     0.40500
O525        O  0.04126075  0.97361357  0.51454275    -1.07800
O526        O  0.97810481  0.92137764  0.47801029    -0.64400
Ni527      Ni  0.97992673  0.96392529  0.51589564     1.26300
O528        O  0.04053103  0.06108381  0.51851941    -0.64600
O529        O  0.98376592  0.91932657  0.55105975    -0.76900
C530        C  0.89602245  0.98818340  0.53166270     0.86500
O531        O  0.91821542  0.95789151  0.51805239    -0.64100
Ni532      Ni  0.07963227  0.92568216  0.50720070     1.27400
Ni533      Ni  0.03903145  0.01924136  0.47969913     1.26100
H534        H  0.96953448  0.99670973  0.45780916     0.41000
O535        O  0.04701646  0.59716230  0.52788429    -0.78900
O536        O  0.03802497  0.40451616  0.47531931    -0.63600
O537        O  0.02627629  0.52710772  0.48196485    -1.10200
C538        C  0.90970854  0.49160204  0.56158704     1.08000
O539        O  0.96678352  0.39530652  0.46887321    -0.76800
O540        O  0.91048432  0.46088247  0.47465141    -0.64400
Ni541      Ni  0.07519468  0.56417996  0.49003492     1.34900
C542        C  0.91247670  0.50011748  0.46455968     0.86700
O543        O  0.07873203  0.46990642  0.44372061    -0.77300
O544        O  0.10855841  0.53531006  0.45288281    -0.87600
C545        C  0.00587794  0.38452373  0.46149612     0.86300
O546        O  0.10213059  0.52990510  0.52641010    -0.65800
O547        O  0.91065777  0.45362432  0.54802008    -0.85100
C548        C  0.10210353  0.48974240  0.53372732     0.87100
C549        C  0.10732876  0.49865260  0.43688269     1.08700
H550        H  0.00317898  0.45593272  0.53779827     0.40500
O551        O  0.99010697  0.46417833  0.51521776    -1.07800
O552        O  0.93848788  0.52748471  0.47860433    -0.64400
Ni553      Ni  0.98101451  0.52516342  0.51697579     1.26300
O554        O  0.07853312  0.46233107  0.51685976    -0.64600
O555        O  0.93558728  0.52171509  0.55191130    -0.76900
C556        C  0.00731390  0.60733868  0.53376318     0.86500
O557        O  0.97623205  0.58645691  0.51941805    -0.64100
Ni558      Ni  0.94130993  0.42644232  0.50880695     1.27400
Ni559      Ni  0.03448488  0.46605567  0.47935709     1.26100
H560        H  0.01387728  0.53617974  0.45912209     0.41000
C561        C  0.82998654  0.49464595  0.38855647     0.25600
C562        C  0.81674659  0.53795248  0.38545717    -0.22500
C563        C  0.83729909  0.56966320  0.40663006     0.20500
C564        C  0.87000762  0.55797133  0.43134965     0.25500
C565        C  0.88216499  0.51414290  0.43549363    -0.22500
C566        C  0.86262686  0.48289174  0.41292448     0.20400
F567        F  0.87427521  0.44050119  0.41490609    -0.12400
F568        F  0.80925536  0.46303925  0.36974763    -0.14800
F569        F  0.88826369  0.58927205  0.45219676    -0.14800
F570        F  0.82506854  0.61180982  0.40382275    -0.12400
C571        C  0.84399134  0.47100414  0.59903711     0.25600
C572        C  0.87593242  0.50187803  0.58913214    -0.22500
C573        C  0.87358171  0.54373385  0.60442461     0.20500
C574        C  0.84004381  0.55438771  0.62813303     0.25500
C575        C  0.80801827  0.52391351  0.63712223    -0.22500
C576        C  0.81031754  0.48208864  0.62266560     0.20400
F577        F  0.78040132  0.45170214  0.63190753    -0.12400
F578        F  0.84478739  0.43012793  0.58565130    -0.14800
F579        F  0.83796326  0.59478221  0.30848394    -0.14800
F580        F  0.90322529  0.57490355  0.59618253    -0.12400
C581        C  0.70421148  0.55972938  0.58970841     0.25600
C582        C  0.70964669  0.53131270  0.61886625    -0.22500
C583        C  0.68900178  0.49084042  0.61837665     0.20500
C584        C  0.66215072  0.47916305  0.58951809     0.25500
C585        C  0.65452669  0.50840158  0.56091098    -0.22500
C586        C  0.67669256  0.54847309  0.56090737     0.20400
F587        F  0.67097157  0.57711749  0.53349866    -0.12400
F588        F  0.72413240  0.59902367  0.58989446    -0.14800
F589        F  0.64124514  0.44039362  0.59099293    -0.14800
F590        F  0.69273607  0.46324383  0.31369795    -0.12400
C591        C  0.18225911  0.42060618  0.58726265     0.25600
C592        C  0.19829797  0.45071767  0.61248477    -0.22500
C593        C  0.18042272  0.49259565  0.61299757     0.20500
C594        C  0.14734154  0.50424715  0.58887611     0.25500
C595        C  0.13223551  0.47474499  0.56267191    -0.22500
C596        C  0.14945954  0.43242782  0.56262710     0.20400
F597        F  0.13640982  0.40317914  0.53751943    -0.12400
F598        F  0.19947351  0.38007698  0.25198354    -0.14800
F599        F  0.13112129  0.54513443  0.59054187    -0.14800
F600        F  0.19728432  0.52358465  0.63486479    -0.12400
C601        C  0.20986461  0.50500927  0.37896888     0.25600
C602        C  0.20867070  0.46496844  0.36115816    -0.22500
C603        C  0.17348045  0.43690408  0.36719862     0.20500
C604        C  0.14031691  0.44808971  0.39111071     0.25500
C605        C  0.14143848  0.48807647  0.40964981    -0.22500
C606        C  0.17662858  0.51657236  0.40290197     0.20400
F607        F  0.17926913  0.55562404  0.41950623    -0.12400
F608        F  0.24241897  0.53338144  0.70613381    -0.14800
F609        F  0.10741672  0.41922875  0.39619987    -0.14800
F610        F  0.17174372  0.39798943  0.35030265    -0.12400
C611        C  0.33212018  0.49711570  0.37627657     0.25600
C612        C  0.30811802  0.45848728  0.37753796    -0.22500
C613        C  0.31097282  0.43196739  0.40818992     0.20500
C614        C  0.33835071  0.44365131  0.43706400     0.25500
C615        C  0.36270777  0.48241434  0.43577910    -0.22500
C616        C  0.35870999  0.50928828  0.40518597     0.20400
F617        F  0.38277029  0.54606759  0.40208944    -0.12400
F618        F  0.33087094  0.52244867  0.34633161    -0.14800
F619        F  0.34158363  0.41679132  0.46594472    -0.14800
F620        F  0.28760848  0.39472344  0.74370093    -0.12400
C621        C  0.50591818  0.19700343  0.39229772     0.25600
C622        C  0.46248681  0.19962928  0.38015269    -0.22500
C623        C  0.43020736  0.17544945  0.39777892     0.20500
C624        C  0.44129264  0.14785147  0.42630111     0.25500
C625        C  0.48536569  0.14276580  0.43707330    -0.22500
C626        C  0.51731691  0.16887896  0.42043291     0.20400
F627        F  0.56005461  0.16581489  0.43005506    -0.12400
F628        F  0.53801184  0.21894544  0.37498566    -0.14800
F629        F  0.40890609  0.12455396  0.44200332    -0.14800
F630        F  0.38797091  0.17745390  0.38652011    -0.12400
C631        C  0.50635066  0.30005424  0.59252288     0.25600
C632        C  0.46844028  0.30541720  0.61290915    -0.22500
C633        C  0.44242941  0.34228431  0.60752731     0.20500
C634        C  0.45453122  0.37375671  0.58206372     0.25500
C635        C  0.49294118  0.36864034  0.56157225    -0.22500
C636        C  0.51862243  0.33118526  0.56725773     0.20400
F637        F  0.55480420  0.32343816  0.54729103    -0.12400
F638        F  0.53101262  0.26375669  0.59646269    -0.14800
F639        F  0.42842718  0.40885797  0.57728367    -0.14800
F640        F  0.40463838  0.34704564  0.62604925    -0.12400
C641        C  0.51817237  0.31812207  0.35967228     0.25600
C642        C  0.47788172  0.29663479  0.36292225    -0.22500
C643        C  0.44997181  0.30763404  0.39131217     0.20500
C644        C  0.46139043  0.34034660  0.41546505     0.25500
C645        C  0.50124480  0.36266206  0.41190547    -0.22500
C646        C  0.52994205  0.35075025  0.38415067     0.20400
F647        F  0.56892299  0.37118195  0.38033989    -0.12400
F648        F  0.54615592  0.30679438  0.66679428    -0.14800
F649        F  0.43383939  0.34949041  0.44296957    -0.14800
F650        F  0.41120715  0.28687650  0.39534279    -0.12400
C651        C  0.49871979  0.81978080  0.61857080     0.25600
C652        C  0.53894922  0.79820188  0.62011526    -0.22500
C653        C  0.56855013  0.80314732  0.59167215     0.20500
C654        C  0.55799753  0.82962614  0.56203548     0.25500
C655        C  0.51737818  0.85116809  0.56031503    -0.22500
C656        C  0.48766688  0.84534531  0.58881776     0.20400
F657        F  0.44883510  0.86657309  0.58912165    -0.12400
F658        F  0.47058322  0.81722827  0.64664370    -0.14800
F659        F  0.58778744  0.83482029  0.53542947    -0.14800
F660        F  0.60837202  0.78391166  0.59339104    -0.12400
C661        C  0.50355519  0.67080523  0.38493909     0.25600
C662        C  0.54629842  0.68712756  0.38384090    -0.22500
C663        C  0.57826013  0.66901363  0.40660053     0.20500
C664        C  0.56733386  0.63602236  0.43099364     0.25500
C665        C  0.52392328  0.62098135  0.43339144    -0.22500
C666        C  0.49247635  0.63804273  0.40927185     0.20400
F667        F  0.45043140  0.62401584  0.40985700    -0.12400
F668        F  0.47160403  0.68872968  0.36427327    -0.14800
F669        F  0.59876434  0.62063549  0.45355556    -0.14800
F670        F  0.61987032  0.68420151  0.40589056    -0.12400
C671        C  0.49441193  0.69856255  0.61721794     0.25600
C672        C  0.53486226  0.69890383  0.63508142    -0.22500
C673        C  0.56440532  0.66503639  0.62906703     0.20500
C674        C  0.55404575  0.63151424  0.60522076     0.25500
C675        C  0.51358009  0.63112802  0.58662692    -0.22500
C676        C  0.48379044  0.66516350  0.59323539     0.20400
F677        F  0.44431308  0.66652909  0.57645289    -0.12400
F678        F  0.46448847  0.72981393  0.62394784    -0.14800
F679        F  0.58390757  0.59953759  0.60050044    -0.14800
F680        F  0.60373607  0.66478390  0.64613912    -0.12400
C681        C  0.17677968  0.04249549  0.43227551     0.25600
C682        C  0.15324083  0.00321727  0.43349538    -0.22500
C683        C  0.15650502  0.97436445  0.40424883     0.20500
C684        C  0.18096535  0.98528054  0.37401484     0.25500
C685        C  0.20403555  0.02442939  0.37271530    -0.22500
C686        C  0.20234668  0.05280856  0.40213216     0.20400
F687        F  0.22384901  0.09124593  0.40091576    -0.12400
F688        F  0.17448385  0.07112314  0.45988803    -0.14800
F689        F  0.18148324  0.95797197  0.67867050    -0.14800
F690        F  0.13371728  0.93662223  0.40374086    -0.12400
C691        C  0.36245609  0.97799541  0.58301838     0.25600
C692        C  0.37823133  0.00857661  0.55804050    -0.22500
C693        C  0.36200731  0.05129180  0.55922907     0.20500
C694        C  0.32907623  0.06236399  0.58354328     0.25500
C695        C  0.31231590  0.03123681  0.60738309    -0.22500
C696        C  0.32974321  0.98919591  0.60730353     0.20400
F697        F  0.31345212  0.95809268  0.29592347    -0.12400
F698        F  0.37790630  0.93677157  0.58343602    -0.14800
F699        F  0.31271209  0.10323806  0.58320952    -0.14800
F700        F  0.37620233  0.08177315  0.53560733    -0.12400
C701        C  0.33974287  0.04686648  0.35988073     0.25600
C702        C  0.30325261  0.01970324  0.35604728    -0.22500
C703        C  0.30173470  0.98083132  0.37565284     0.20500
C704        C  0.33499916  0.97024940  0.40006312     0.25500
C705        C  0.37138115  0.99779390  0.40459822    -0.22500
C706        C  0.37370722  0.03586470  0.38349740     0.20400
F707        F  0.40894909  0.06247838  0.38538478    -0.12400
F708        F  0.34222107  0.08443641  0.34092255    -0.14800
F709        F  0.33104243  0.93323152  0.41956851    -0.14800
F710        F  0.26886894  0.95229950  0.70372084    -0.12400
C711        C  0.84580022  0.93534814  0.56320900     0.25600
C712        C  0.86095234  0.97811190  0.55798148    -0.22500
C713        C  0.84578883  0.01088724  0.58123245     0.20500
C714        C  0.81847977  0.00081281  0.60996662     0.25500
C715        C  0.80394888  0.95830770  0.61537595    -0.22500
C716        C  0.81743366  0.92564980  0.59166356     0.20400
F717        F  0.80473643  0.88401772  0.59711948    -0.12400
F718        F  0.85968617  0.90258797  0.54178998    -0.14800
F719        F  0.81052266  0.03195683  0.30178361    -0.14800
F720        F  0.85997550  0.05240830  0.57812319    -0.12400
C721        C  0.67979599  0.99948543  0.38346798     0.25600
C722        C  0.69598225  0.95704480  0.38198261    -0.22500
C723        C  0.67755425  0.92521515  0.40436679     0.20500
C724        C  0.64424136  0.93595725  0.42854144     0.25500
C725        C  0.62886241  0.97895321  0.43085349    -0.22500
C726        C  0.64628012  0.01021692  0.40712618     0.20400
F727        F  0.63194753  0.05184410  0.40744988    -0.12400
F728        F  0.69924661  0.03171344  0.69777947    -0.14800
F729        F  0.62864690  0.90464998  0.45075593    -0.14800
F730        F  0.69255498  0.88385146  0.40340455    -0.12400
C731        C  0.66750301  0.02248546  0.59536857     0.25600
C732        C  0.63780908  0.99012061  0.58424268    -0.22500
C733        C  0.64222262  0.94805038  0.59899876     0.20500
C734        C  0.67593057  0.93861718  0.62322477     0.25500
C735        C  0.70589667  0.97064002  0.63343425    -0.22500
C736        C  0.70115858  0.01275136  0.61968226     0.20400
F737        F  0.72892808  0.04453307  0.29662150    -0.12400
F738        F  0.66404239  0.06377334  0.58300714    -0.14800
F739        F  0.67977711  0.89782404  0.63659166    -0.14800
F740        F  0.61442147  0.91556837  0.58980018    -0.12400
C741        C  0.99355671  0.12462740  0.59060092     0.25600
C742        C  0.02458015  0.11293833  0.56442071    -0.22500
C743        C  0.06565875  0.13344084  0.56490516     0.20500
C744        C  0.07393557  0.16751787  0.58889951     0.25500
C745        C  0.04166789  0.18120334  0.61315214    -0.22500
C746        C  0.00185176  0.15864141  0.61445168     0.20400
F747        F  0.96939445  0.17175070  0.63663060    -0.12400
F748        F  0.95424551  0.10428746  0.59216404    -0.14800
F749        F  0.11289643  0.18844455  0.58745540    -0.14800
F750        F  0.09671695  0.12267145  0.54056929    -0.12400
C751        C  0.06128971  0.16190554  0.36710149     0.25600
C752        C  0.03059354  0.19503772  0.36170043    -0.22500
C753        C  0.99096220  0.19364332  0.38031515     0.20500
C754        C  0.98213567  0.15977979  0.40424304     0.25500
C755        C  0.01310067  0.12648076  0.41027138    -0.22500
C756        C  0.05282952  0.12801486  0.39113249     0.20400
F757        F  0.08359376  0.09670681  0.39534077    -0.12400
F758        F  0.09934122  0.16203820  0.68190305    -0.14800
F759        F  0.94303608  0.15981599  0.42131621    -0.14800
F760        F  0.95986937  0.22405927  0.37402754    -0.12400
C761        C  0.99081032  0.31840095  0.37639595     0.25600
C762        C  0.02988516  0.29485142  0.37483502    -0.22500
C763        C  0.06033412  0.29864184  0.40308197     0.20500
C764        C  0.05228323  0.32677380  0.43204297     0.25500
C765        C  0.01332690  0.35110998  0.43331511    -0.22500
C766        C  0.98229704  0.34575732  0.40542908     0.20400
F767        F  0.94469652  0.36907958  0.40494154    -0.12400
F768        F  0.96137736  0.31600291  0.34896701    -0.14800
F769        F  0.08283780  0.33073619  0.45846084    -0.14800
F770        F  0.09876438  0.27682360  0.40167274    -0.12400
C771        C  0.00804997  0.82034086  0.38326822     0.25600
C772        C  0.96602969  0.80206199  0.38446513    -0.22500
C773        C  0.93632250  0.81705707  0.41036336     0.20500
C774        C  0.94861096  0.84933658  0.43486844     0.25500
C775        C  0.99100400  0.86710499  0.43402717    -0.22500
C776        C  0.02022906  0.85279163  0.40744179     0.20400
F777        F  0.06128633  0.86924289  0.40543455    -0.12400
F778        F  0.03875515  0.80446645  0.36068648    -0.14800
F779        F  0.91986270  0.86125561  0.46073684    -0.14800
F780        F  0.89580332  0.79940150  0.41273075    -0.12400
C781        C  0.03047990  0.82284872  0.59302082     0.25600
C782        C  0.00238954  0.85830124  0.58651160    -0.22500
C783        C  0.96238534  0.86007861  0.60539058     0.20500
C784        C  0.95080595  0.82724903  0.62945789     0.25500
C785        C  0.97862809  0.79190724  0.63541992    -0.24100
C786        C  0.01869677  0.79015048  0.61729068     0.20400
F787        F  0.04725587  0.75759004  0.62413349    -0.12400
F788        F  0.06928410  0.81937091  0.57577006    -0.14800
F789        F  0.91184003  0.82954542  0.64662514    -0.14800
F790        F  0.93402590  0.89344412  0.60063722    -0.12400
C791        C  0.01179149  0.66913270  0.62130399     0.25600
C792        C  0.97323580  0.69352773  0.61975611    -0.22500
C793        C  0.94729902  0.69245264  0.58851709     0.20500
C794        C  0.95901985  0.66569547  0.55959817     0.25500
C795        C  0.99734174  0.64039875  0.56143417    -0.22500
C796        C  0.02411259  0.64332767  0.59230321     0.20400
F797        F  0.06078018  0.61887008  0.59557002    -0.12400
F798        F  0.03702187  0.66948633  0.65150837    -0.14800
F799        F  0.93259384  0.66390021  0.53016332    -0.14800
F800        F  0.90977421  0.71579023  0.58671627    -0.12400
N801        N  0.96631925  0.75836330  0.99388845    -0.01500
C802        C  0.95899549  0.71612649  0.98611847     0.01100
C803        C  0.94255115  0.69471235  0.68229374    -0.21800
C804        C  0.93992338  0.72487773  0.70945672    -0.22000
C805        C  0.95492773  0.76362414  0.69536308     0.01000
H806        H  0.93572075  0.66041614  0.68458207     0.14800
H807        H  0.93103078  0.71846983  0.73712349     0.14800
N808        N  0.03879474  0.22839841  0.66877512    -0.01500
C809        C  0.04118185  0.27173754  0.67455407     0.01100
C810        C  0.05042033  0.29289473  0.97576835    -0.21800
C811        C  0.05457864  0.26146930  0.94973918    -0.22000
C812        C  0.04675132  0.22215253  0.96641445     0.01000
H813        H  0.05294222  0.32753745  0.97174928     0.14800
H814        H  0.06036172  0.26690599  0.92136491     0.14800
N815        N  0.74053650  0.95987575  0.99173929    -0.01500
C816        C  0.78153879  0.94760851  0.98275566     0.01100
C817        C  0.80187557  0.92760473  0.67807822    -0.21800
C818        C  0.77228804  0.92742431  0.70589376    -0.22000
C819        C  0.73480209  0.94718299  0.69293999     0.01000
H820        H  0.83515803  0.91584085  0.67912447     0.14800
H821        H  0.77798909  0.91543564  0.73291484     0.14800
N822        N  0.26882113  0.03126956  0.66471099    -0.01500
C823        C  0.22596299  0.03698206  0.67232924     0.01100
C824        C  0.20337751  0.05022036  0.97505713    -0.21800
C825        C  0.23359135  0.05294401  0.94780287    -0.22000
C826        C  0.27333442  0.04090272  0.96257849     0.01000
H827        H  0.16852269  0.05535120  0.97254195     0.14800
H828        H  0.22678676  0.06009816  0.91978680     0.14800
N829        N  0.54604167  0.73252636  0.99391282    -0.01500
C830        C  0.55179959  0.77531120  0.98698879     0.01100
C831        C  0.56490534  0.79644321  0.68448856    -0.21800
C832        C  0.56771015  0.76552433  0.71123923    -0.22000
C833        C  0.55554889  0.72659077  0.69580838     0.01000
H834        H  0.57018414  0.83090371  0.68760526     0.14800
H835        H  0.57509177  0.77129496  0.73935551     0.14800
N836        N  0.46432279  0.26367940  0.67119802    -0.01500
C837        C  0.45156175  0.22288643  0.67978447     0.01100
C838        C  0.43333881  0.20281871  0.98326474    -0.21800
C839        C  0.43497444  0.23231293  0.95546201    -0.22000
C840        C  0.45412614  0.26934177  0.96918282     0.01000
H841        H  0.42198661  0.16967425  0.98154157     0.14800
H842        H  0.42514615  0.22669978  0.92782713     0.14800
N843        N  0.24246375  0.45241365  0.67017287    -0.01500
C844        C  0.28474493  0.44396131  0.67856557     0.01100
C845        C  0.30604568  0.42674418  0.98220685    -0.21800
C846        C  0.27562659  0.42412035  0.95482818    -0.22000
C847        C  0.23697542  0.44050577  0.96829446     0.01000
H848        H  0.34038029  0.41874912  0.98039902     0.14800
H849        H  0.28182034  0.41398741  0.92745356     0.14800
N850        N  0.77327151  0.53570053  0.99472915    -0.01500
C851        C  0.73160893  0.54517513  0.98550257     0.01100
C852        C  0.71041580  0.56424156  0.68067307    -0.21800
C853        C  0.74034685  0.56678375  0.70846907    -0.22000
C854        C  0.77876469  0.54919597  0.69569011     0.01000
H855        H  0.67630596  0.57332164  0.68173212     0.14800
H856        H  0.73405731  0.57787537  0.73556929     0.14800
O857        O  0.60952965  0.45931044  0.86131545    -0.78900
O858        O  0.41595027  0.46332901  0.81341980    -0.63600
O859        O  0.53887590  0.47912033  0.81547192    -1.10200
C860        C  0.50365584  0.59672486  0.89304879     1.08000
O861        O  0.40530542  0.53311436  0.80286346    -0.76800
O862        O  0.47033774  0.59117012  0.80518777    -0.64400
Ni863      Ni  0.57847114  0.43216140  0.82179365     1.34900
C864        C  0.51020121  0.59083040  0.79600462     0.86700
O865        O  0.48106066  0.42219689  0.78139251    -0.77300
O866        O  0.55126063  0.40060332  0.78274049    -0.87600
C867        C  0.39520609  0.49349626  0.79771160     0.86300
O868        O  0.54533391  0.40013441  0.85608032    -0.65800
O869        O  0.46552474  0.59548209  0.87875630    -0.85100
C870        C  0.50606233  0.40097394  0.86691389     0.87100
C871        C  0.51202026  0.39767619  0.77104704     1.08700
H872        H  0.46851229  0.50313961  0.87233242     0.40500
O873        O  0.47621674  0.51488819  0.84912708    -1.07800
O874        O  0.53865585  0.56679221  0.81129974    -0.64400
Ni875      Ni  0.53746587  0.52473703  0.85005258     1.26300
O876        O  0.47774515  0.42730831  0.85434262    -0.64600
O877        O  0.53401919  0.57041319  0.88463193    -0.76900
C878        C  0.62033816  0.49862507  0.86687988     0.86500
O879        O  0.59937433  0.52946133  0.85227198    -0.64100
Ni880      Ni  0.43728074  0.56206909  0.84115552     1.27400
Ni881      Ni  0.47777592  0.46867546  0.81514793     1.26100
H882        H  0.54590710  0.49146509  0.79227407     0.41000
O883        O  0.46760163  0.89217249  0.85778414    -0.78900
O884        O  0.46894082  0.08389067  0.80939252    -0.63600
O885        O  0.48719784  0.96241095  0.81143160    -1.10200
C886        C  0.60373911  0.99949496  0.89002964     1.08000
O887        O  0.53864683  0.09809145  0.80028686    -0.76800
O888        O  0.59660160  0.03242963  0.80074276    -0.64400
Ni889      Ni  0.43976778  0.92309713  0.81829313     1.34900
C890        C  0.59821392  0.99243080  0.79303001     0.86700
O891        O  0.43063326  0.01893062  0.77540724    -0.77300
O892        O  0.40727454  0.95019125  0.77951552    -0.87600
C893        C  0.49835843  0.10718435  0.79554340     0.86300
O894        O  0.40843735  0.95568222  0.85316596    -0.65800
O895        O  0.60351888  0.03640490  0.87429065    -0.85100
C896        C  0.40903765  0.99504723  0.86288501     0.87100
C897        C  0.40544040  0.98820193  0.76579184     1.08700
H898        H  0.50927970  0.03379998  0.86836162     0.40500
O899        O  0.52156844  0.02580677  0.84545294    -1.07800
O900        O  0.57571731  0.96390057  0.80948220    -0.64400
Ni901      Ni  0.53210037  0.96511485  0.84703711     1.26300
O902        O  0.43388544  0.02319861  0.84868659    -0.64600
O903        O  0.57647023  0.96967591  0.88272748    -0.76900
C904        C  0.50738403  0.88303776  0.86472811     0.86500
O905        O  0.53808501  0.90388645  0.84995387    -0.64100
Ni906      Ni  0.56878124  0.06490841  0.83751737     1.27400
Ni907      Ni  0.47610492  0.02303123  0.81051766     1.26100
H908        H  0.50003418  0.95491854  0.78859000     0.41000
O909        O  0.90563251  0.02742128  0.85890243    -0.78900
O910        O  0.10067954  0.02429224  0.81043003    -0.63600
O911        O  0.97742459  0.00883024  0.81400488    -1.10200
C912        C  0.01326954  0.89200114  0.89249837     1.08000
O913        O  0.11190284  0.95411783  0.80245622    -0.76800
O914        O  0.04609224  0.89709252  0.80407820    -0.64400
Ni915      Ni  0.93843612  0.05604615  0.82155467     1.34900
C916        C  0.00583227  0.89722762  0.79576106     0.86700
O917        O  0.03478818  0.06481493  0.77805208    -0.77300
O918        O  0.96667684  0.08983730  0.78484975    -0.87600
C919        C  0.12141259  0.99355190  0.79579660     0.86300
O920        O  0.97147260  0.08362344  0.85841691    -0.65800
O921        O  0.05096968  0.89203166  0.87777891    -0.85100
C922        C  0.01144236  0.08353864  0.86762257     0.87100
C923        C  0.00422681  0.09128822  0.77019275     1.08700
H924        H  0.04938400  0.98560873  0.87072915     0.40500
O925        O  0.04109873  0.97349062  0.84773959    -1.07800
O926        O  0.97793723  0.92119043  0.81130698    -0.64400
Ni927      Ni  0.97977333  0.96377699  0.84914719     1.26300
O928        O  0.04028962  0.06092992  0.85168027    -0.64600
O929        O  0.98367079  0.91921042  0.88435888    -0.76900
C930        C  0.89587839  0.98803425  0.86492413     0.86500
O931        O  0.91806864  0.95771544  0.85135363    -0.64100
Ni932      Ni  0.07949163  0.92557595  0.84040919     1.27400
Ni933      Ni  0.03881846  0.01908866  0.81286607     1.26100
H934        H  0.96933314  0.99647180  0.79101742     0.41000
O935        O  0.04665247  0.59697642  0.86133072    -0.78900
O936        O  0.03761911  0.40443702  0.80870137    -0.63600
O937        O  0.02583571  0.52701284  0.81536328    -1.10200
C938        C  0.90927077  0.49136209  0.89492905     1.08000
O939        O  0.96639952  0.39529595  0.80203035    -0.76800
O940        O  0.91005840  0.46085718  0.80792866    -0.64400
Ni941      Ni  0.07473081  0.56412228  0.82337391     1.34900
C942        C  0.91204977  0.50012354  0.79792558     0.86700
O943        O  0.07839616  0.46981663  0.77716235    -0.77300
O944        O  0.10801051  0.53535224  0.78613853    -0.87600
C945        C  0.00552290  0.38449229  0.79475223     0.86300
O946        O  0.10185625  0.52982167  0.85962630    -0.65800
O947        O  0.91018763  0.45341932  0.88128095    -0.85100
C948        C  0.10178774  0.48967751  0.86700966     0.87100
C949        C  0.10690669  0.49862283  0.77025431     1.08700
H950        H  0.00268718  0.45574697  0.87112505     0.40500
O951        O  0.98964935  0.46404771  0.84854491    -1.07800
O952        O  0.93804685  0.52745426  0.81203712    -0.64400
Ni953      Ni  0.98058496  0.52502710  0.85039179     1.26300
O954        O  0.07808419  0.46225960  0.85027513    -0.64600
O955        O  0.93516798  0.52148983  0.88531674    -0.76900
C956        C  0.00697615  0.60716117  0.86729510     0.86500
O957        O  0.97583828  0.58633515  0.85296600    -0.64100
Ni958      Ni  0.94086589  0.42632467  0.84202436     1.27400
Ni959      Ni  0.03407562  0.46596498  0.81274045     1.26100
H960        H  0.01341147  0.53607104  0.79252630     0.41000
C961        C  0.82977962  0.49489580  0.72174993     0.25600
C962        C  0.81659863  0.53822337  0.71869283    -0.22500
C963        C  0.83706835  0.56985734  0.73999551     0.20500
C964        C  0.86965581  0.55807334  0.76478652     0.25500
C965        C  0.88178202  0.51422894  0.76886268    -0.22500
C966        C  0.86229822  0.48304767  0.74619401     0.20400
F967        F  0.87387585  0.44063598  0.74814899    -0.12400
F968        F  0.80909324  0.46335699  0.70282805    -0.14800
F969        F  0.88781264  0.58929713  0.78577126    -0.14800
F970        F  0.82485823  0.61201610  0.73725277    -0.12400
C971        C  0.84364621  0.47068745  0.93246443     0.25600
C972        C  0.87553137  0.50159371  0.92251332    -0.22500
C973        C  0.87317988  0.54344500  0.93781901     0.20500
C974        C  0.83970090  0.55405987  0.96159002     0.25500
C975        C  0.80773926  0.52355098  0.97063601    -0.22500
C976        C  0.81003631  0.48173088  0.95616696     0.20400
F977        F  0.78017991  0.45131202  0.96546446    -0.12400
F978        F  0.84443530  0.42982267  0.91905461    -0.14800
F979        F  0.83809450  0.59505935  0.64184984    -0.14800
F980        F  0.90275471  0.57465702  0.92952056    -0.12400
C981        C  0.70405696  0.55964772  0.92320647     0.25600
C982        C  0.70946073  0.53111690  0.95229323    -0.22500
C983        C  0.68891809  0.49059807  0.95162848     0.20500
C984        C  0.66217893  0.47899351  0.92267777     0.25500
C985        C  0.65453155  0.50836428  0.89416548    -0.22500
C986        C  0.67662666  0.54847340  0.89432380     0.20400
F987        F  0.67092521  0.57722754  0.86699211    -0.12400
F988        F  0.72393636  0.59896129  0.92353255    -0.14800
F989        F  0.64140183  0.44014676  0.92397128    -0.14800
F990        F  0.69293925  0.46350901  0.64692505    -0.12400
C991        C  0.18238847  0.42073289  0.92023514     0.25600
C992        C  0.19836832  0.45084270  0.94548791    -0.22500
C993        C  0.18034515  0.49265612  0.94609128     0.20500
C994        C  0.14713519  0.50422743  0.92206788     0.25500
C995        C  0.13204944  0.47472011  0.89586447    -0.22500
C996        C  0.14946735  0.43248622  0.89568617     0.20400
F997        F  0.13649586  0.40327828  0.87051778    -0.12400
F998        F  0.19930898  0.38006557  0.58573984    -0.14800
F999        F  0.13076701  0.54505076  0.92381867    -0.14800
F1000       F  0.19716892  0.52366892  0.96795535    -0.12400
C1001       C  0.20972803  0.50484989  0.71269341     0.25600
C1002       C  0.20850500  0.46486173  0.69480533    -0.22500
C1003       C  0.17322204  0.43686179  0.70069905     0.20500
C1004       C  0.13996140  0.44808440  0.72450602     0.25500
C1005       C  0.14109372  0.48802999  0.74310016    -0.22500
C1006       C  0.17641236  0.51643500  0.73654134     0.20400
F1007       F  0.17912790  0.55539695  0.75328272    -0.12400
F1008       F  0.24254871  0.53341628  0.03932721    -0.14800
F1009       F  0.10695650  0.41930115  0.72944261    -0.14800
F1010       F  0.17149197  0.39796767  0.68376990    -0.12400
C1011       C  0.33232887  0.49698212  0.70978652     0.25600
C1012       C  0.30796593  0.45858607  0.71126813    -0.22500
C1013       C  0.31036628  0.43241877  0.74215297     0.20500
C1014       C  0.33775528  0.44415120  0.77100476     0.25500
C1015       C  0.36251719  0.48263979  0.76946895    -0.22500
C1016       C  0.35890675  0.50922076  0.73867703     0.20400
F1017       F  0.38334283  0.54573156  0.73538613    -0.12400
F1018       F  0.33141120  0.52202041  0.67966437    -0.14800
F1019       F  0.34060272  0.41761094  0.80011447    -0.14800
F1020       F  0.28797930  0.39470614  0.07651847    -0.12400
C1021       C  0.50572404  0.19717333  0.72573556     0.25600
C1022       C  0.46226029  0.19974707  0.71365029    -0.22500
C1023       C  0.43007915  0.17542427  0.73126497     0.20500
C1024       C  0.44128626  0.14775545  0.75970886     0.25500
C1025       C  0.48538898  0.14274829  0.77043326    -0.22500
C1026       C  0.51724757  0.16897193  0.75379307     0.20400
F1027       F  0.56001182  0.16595044  0.76334041    -0.12400
F1028       F  0.53773323  0.21924001  0.70842781    -0.14800
F1029       F  0.40898331  0.12430483  0.77537183    -0.14800
F1030       F  0.38781882  0.17734179  0.72005650    -0.12400
C1031       C  0.50680099  0.30044695  0.92612667     0.25600
C1032       C  0.46858176  0.30549424  0.94616642    -0.22500
C1033       C  0.44223383  0.34205038  0.94045408     0.20500
C1034       C  0.45433305  0.37356475  0.91503524     0.25500
C1035       C  0.49305800  0.36877768  0.89488478    -0.22500
C1036       C  0.51907510  0.33161785  0.90090096     0.20400
F1037       F  0.55561884  0.32417794  0.88130400    -0.12400
F1038       F  0.53175125  0.26438479  0.93033171    -0.14800
F1039       F  0.42789576  0.40835997  0.90994518    -0.14800
F1040       F  0.40413750  0.34646295  0.95861182    -0.12400
C1041       C  0.51780508  0.31825439  0.69300787     0.25600
C1042       C  0.47750323  0.29680031  0.69628756    -0.22500
C1043       C  0.44955602  0.30793654  0.72461328     0.20500
C1044       C  0.46098205  0.34071081  0.74870886     0.25500
C1045       C  0.50088705  0.36294627  0.74515640    -0.22500
C1046       C  0.52958860  0.35093471  0.71743194     0.20400
F1047       F  0.56859796  0.37130786  0.71360434    -0.12400
F1048       F  0.54672700  0.30656593  0.00011452    -0.14800
F1049       F  0.43339539  0.34997564  0.77616099    -0.14800
F1050       F  0.41075226  0.28724842  0.72863665    -0.12400
C1051       C  0.49897864  0.81980797  0.95200365     0.25600
C1052       C  0.53920323  0.79821452  0.95351207    -0.22500
C1053       C  0.56875132  0.80312660  0.92502709     0.20500
C1054       C  0.55816485  0.82960695  0.89539798     0.25500
C1055       C  0.51755766  0.85117576  0.89371978    -0.22500
C1056       C  0.48788751  0.84536737  0.92225469     0.20400
F1057       F  0.44906293  0.86660669  0.92259419    -0.12400
F1058       F  0.47088611  0.81727675  0.98010787    -0.14800
F1059       F  0.58791335  0.83477859  0.86875778    -0.14800
F1060       F  0.60856101  0.78386129  0.92669857    -0.12400
C1061       C  0.50323574  0.67084130  0.71829761     0.25600
C1062       C  0.54600525  0.68708023  0.71708818    -0.22500
C1063       C  0.57802999  0.66888604  0.73973586     0.20500
C1064       C  0.56713750  0.63594318  0.76417707     0.25500
C1065       C  0.52369513  0.62103969  0.76674362    -0.22500
C1066       C  0.49218111  0.63813868  0.74269745     0.20400
F1067       F  0.45010434  0.62421711  0.74342454    -0.12400
F1068       F  0.47125325  0.68879819  0.69768233    -0.14800
F1069       F  0.59864624  0.62047779  0.78662615    -0.14800
F1070       F  0.61967397  0.68396810  0.73888162    -0.12400
C1071       C  0.49465245  0.69858353  0.95076507     0.25600
C1072       C  0.53514840  0.69892279  0.96855417    -0.22500
C1073       C  0.56465039  0.66502181  0.96252622     0.20500
C1074       C  0.55422459  0.63149744  0.93870172     0.25500
C1075       C  0.51373810  0.63114958  0.92014210    -0.22500
C1076       C  0.48396735  0.66518695  0.92680237     0.20400
F1077       F  0.44444736  0.66655910  0.91008879    -0.12400
F1078       F  0.46475161  0.72984022  0.95754442    -0.14800
F1079       F  0.58404038  0.59948163  0.93396724    -0.14800
F1080       F  0.60400465  0.66473923  0.97956063    -0.12400
C1081       C  0.17674299  0.04238494  0.76562946     0.25600
C1082       C  0.15313736  0.00314143  0.76674029    -0.22500
C1083       C  0.15642355  0.97436119  0.73744793     0.20500
C1084       C  0.18097604  0.98532046  0.70727183     0.25500
C1085       C  0.20412050  0.02443566  0.70608207    -0.22500
C1086       C  0.20240110  0.05273878  0.73554791     0.20400
F1087       F  0.22395896  0.09115006  0.73443597    -0.12400
F1088       F  0.17442711  0.07094081  0.79329190    -0.14800
F1089       F  0.18135046  0.95808027  0.01204864    -0.14800
F1090       F  0.13357030  0.93665909  0.73683938    -0.12400
C1091       C  0.36266619  0.97807918  0.91650853     0.25600
C1092       C  0.37838344  0.00863986  0.89148845    -0.22500
C1093       C  0.36204368  0.05131392  0.89259278     0.20500
C1094       C  0.32903993  0.06235145  0.91685200     0.25500
C1095       C  0.31231619  0.03123099  0.94071707    -0.22500
C1096       C  0.32986824  0.98924012  0.94073072     0.20400
F1097       F  0.31303973  0.95798574  0.62903027    -0.12400
F1098       F  0.37825056  0.93690614  0.91701784    -0.14800
F1099       F  0.31256052  0.10317935  0.91643226    -0.14800
F1100       F  0.37618617  0.08177485  0.86893144    -0.12400
C1101       C  0.33993880  0.04682424  0.69322342     0.25600
C1102       C  0.30339514  0.01971704  0.68942951    -0.22500
C1103       C  0.30181306  0.98089286  0.70909830     0.20500
C1104       C  0.33505147  0.97032052  0.73354034     0.25500
C1105       C  0.37148450  0.99780856  0.73803064    -0.22500
C1106       C  0.37388619  0.03581485  0.71685680     0.20400
F1107       F  0.40918819  0.06235629  0.71868812    -0.12400
F1108       F  0.34248245  0.08435725  0.67422056    -0.14800
F1109       F  0.33101721  0.93337276  0.75312590    -0.14800
F1110       F  0.26865008  0.95246547  0.03717581    -0.12400
C1111       C  0.84578107  0.93528482  0.89671018     0.25600
C1112       C  0.86090271  0.97803458  0.89134068    -0.22500
C1113       C  0.84583513  0.01088719  0.91455830     0.20500
C1114       C  0.81866317  0.00090699  0.94339524     0.25500
C1115       C  0.80410561  0.95843566  0.94891197    -0.22500
C1116       C  0.81749757  0.92569020  0.92524675     0.20400
F1117       F  0.80480646  0.88408056  0.93083139    -0.12400
F1118       F  0.85961632  0.90244783  0.87534942    -0.14800
F1119       F  0.80984636  0.03197355  0.63460304    -0.14800
F1120       F  0.85999311  0.05240253  0.91131334    -0.12400
C1121       C  0.68016291  0.99956006  0.71698792     0.25600
C1122       C  0.69609840  0.95704349  0.71528051    -0.22500
C1123       C  0.67751879  0.92517123  0.73754147     0.20500
C1124       C  0.64426840  0.93593401  0.76177475     0.25500
C1125       C  0.62906813  0.97898218  0.76424207    -0.22500
C1126       C  0.64667849  0.01030652  0.74066646     0.20400
F1127       F  0.63257707  0.05200800  0.74116088    -0.12400
F1128       F  0.69841519  0.03180238  0.03065153    -0.14800
F1129       F  0.62854930  0.90457914  0.78388258    -0.14800
F1130       F  0.69230430  0.88373881  0.73639979    -0.12400
C1131       C  0.66784398  0.02243283  0.92856489     0.25600
C1132       C  0.63799365  0.99013426  0.91759904    -0.22500
C1133       C  0.64224612  0.94812966  0.93252823     0.20500
C1134       C  0.67593013  0.93870344  0.95678707     0.25500
C1135       C  0.70603474  0.97066713  0.96684574    -0.22500
C1136       C  0.70146560  0.01270625  0.95290574     0.20400
F1137       F  0.72816608  0.04495410  0.63054192    -0.12400
F1138       F  0.66457420  0.06365647  0.91602236    -0.14800
F1139       F  0.67960515  0.89798282  0.97033940    -0.14800
F1140       F  0.61429250  0.91571158  0.92348786    -0.12400
C1141       C  0.99324082  0.12431926  0.92380991     0.25600
C1142       C  0.02428788  0.11269650  0.89762859    -0.22500
C1143       C  0.06536760  0.13319262  0.89817474     0.20500
C1144       C  0.07358666  0.16727275  0.92217746     0.25500
C1145       C  0.04125955  0.18095757  0.94637475    -0.22500
C1146       C  0.00148429  0.15832781  0.94767830     0.20400
F1147       F  0.96901119  0.17137609  0.96986631    -0.12400
F1148       F  0.95395315  0.10393128  0.92534627    -0.14800
F1149       F  0.11253893  0.18821976  0.92078131    -0.14800
F1150       F  0.09647554  0.12242796  0.87388061    -0.12400
C1151       C  0.06100986  0.16155768  0.70008873     0.25600
C1152       C  0.03051472  0.19492767  0.69489052    -0.22500
C1153       C  0.99095178  0.19367665  0.71361920     0.20500
C1154       C  0.98204395  0.15977451  0.73750310     0.25500
C1155       C  0.01284201  0.12627739  0.74335594    -0.22500
C1156       C  0.05244941  0.12761630  0.72404604     0.20400
F1157       F  0.08299604  0.09605582  0.72800955    -0.12400
F1158       F  0.09917627  0.16236393  0.01528370    -0.14800
F1159       F  0.94304307  0.15998102  0.75472630    -0.14800
F1160       F  0.96000189  0.22428311  0.70750452    -0.12400
C1161       C  0.99094752  0.31843441  0.70953809     0.25600
C1162       C  0.02999872  0.29481613  0.70815911    -0.22500
C1163       C  0.06029170  0.29862995  0.73651622     0.20500
C1164       C  0.05207412  0.32676675  0.76544120     0.25500
C1165       C  0.01311457  0.35111203  0.76656476    -0.22500
C1166       C  0.98227115  0.34580930  0.73853382     0.20400
F1167       F  0.94471563  0.36919986  0.73787331    -0.12400
F1168       F  0.96171242  0.31609563  0.68196204    -0.14800
F1169       F  0.08248341  0.33073333  0.79197213    -0.14800
F1170       F  0.09874192  0.27683217  0.73525314    -0.12400
C1171       C  0.00784994  0.81991529  0.71673587     0.25600
C1172       C  0.96573754  0.80184260  0.71784835    -0.22500
C1173       C  0.93600127  0.81701861  0.74364537     0.20500
C1174       C  0.94833966  0.84930796  0.76812038     0.25500
C1175       C  0.99081252  0.86690078  0.76734619    -0.22500
C1176       C  0.02007594  0.85239015  0.74086342     0.20400
F1177       F  0.06120152  0.86868425  0.73890074    -0.12400
F1178       F  0.03857109  0.80383334  0.69426980    -0.14800
F1179       F  0.91953203  0.86143691  0.79387604    -0.14800
F1180       F  0.89538741  0.79956145  0.74592423    -0.12400
C1181       C  0.03054269  0.82281648  0.92640384     0.25600
C1182       C  0.00238185  0.85820836  0.91984755    -0.22500
C1183       C  0.96239064  0.85995028  0.93875028     0.20500
C1184       C  0.95091018  0.82717202  0.96290590     0.25500
C1185       C  0.97881353  0.79190820  0.96892966    -0.24100
C1186       C  0.01885102  0.79016181  0.95075332     0.20400
F1187       F  0.04744954  0.75763352  0.95760719    -0.12400
F1188       F  0.06932650  0.81935368  0.90912057    -0.14800
F1189       F  0.91195107  0.82942844  0.98008680    -0.14800
F1190       F  0.93394602  0.89323046  0.93393405    -0.12400
C1191       C  0.01188085  0.66883900  0.95488776     0.25600
C1192       C  0.97348906  0.69348995  0.95337385    -0.22500
C1193       C  0.94750801  0.69258446  0.92215218     0.20500
C1194       C  0.95900603  0.66573993  0.89322311     0.25500
C1195       C  0.99714889  0.64018291  0.89503355    -0.22500
C1196       C  0.02396351  0.64291691  0.92589029     0.20400
F1197       F  0.06043715  0.61817251  0.92914282    -0.12400
F1198       F  0.03717274  0.66905055  0.98505832    -0.14800
F1199       F  0.93255333  0.66413756  0.86379720    -0.14800
F1200       F  0.91014561  0.71617857  0.92038030    -0.12400
loop_ 
_geom_bond_atom_site_label_1 
_geom_bond_atom_site_label_2 
_geom_bond_distance 
_geom_bond_site_symmetry_2 
_ccdc_geom_bond_type 
N1            C2   1.354       .  A
N1          C405   1.358       .  A
N1          C385   1.441       .  S
C2          C392   1.475       .  S
C2          C403   1.382       .  A
C3            C4   1.377       .  A
C3          C802   1.382   1_554  A
C3            H6   1.082       .  S
C4            C5   1.384       .  A
C4            H7   1.082       .  S
C5          N801   1.358   1_554  A
C5          C372   1.483       .  S
N8            C9   1.357       .  A
N8          C812   1.357   1_554  A
N8          C352   1.439       .  S
C9          C362   1.480       .  S
C9          C810   1.382   1_554  A
C10          C11   1.377       .  A
C10         C409   1.382       .  A
C10          H13   1.082       .  S
C11          C12   1.383       .  A
C11          H14   1.082       .  S
C12         N408   1.357       .  A
C12         C345   1.484       .  S
N15          C16   1.355       .  A
N15         C419   1.356       .  A
N15         C335   1.439       .  S
C16         C315   1.475       .  S
C16         C417   1.381       .  A
C17          C18   1.378       .  A
C17         C816   1.381   1_554  A
C17          H20   1.082       .  S
C18          C19   1.383       .  A
C18          H21   1.082       .  S
C19         N815   1.356   1_554  A
C19         C322   1.483       .  S
N22          C23   1.355   1_556  A
N22         C826   1.356       .  A
N22         C302   1.442   1_556  S
C23         C285   1.475       .  S
C23         C824   1.382   1_554  A
C24          C25   1.378       .  A
C24         C423   1.382       .  A
C24          H27   1.082       .  S
C25          C26   1.383       .  A
C25          H28   1.082       .  S
C26         N422   1.356       .  A
C26         C295   1.478       .  S
N29          C30   1.357       .  A
N29         C433   1.357       .  A
N29         C272   1.441       .  S
C30         C252   1.479       .  S
C30         C431   1.382       .  A
C31          C32   1.379       .  A
C31         C830   1.382   1_554  A
C31          H34   1.082       .  S
C32          C33   1.383       .  A
C32          H35   1.082       .  S
C33         N829   1.356   1_554  A
C33         C262   1.482       .  S
N36          C37   1.356       .  A
N36         C840   1.356   1_554  A
N36         C242   1.441       .  S
C37         C222   1.480       .  S
C37         C838   1.383   1_554  A
C38          C39   1.376       .  A
C38         C437   1.383       .  A
C38          H41   1.082       .  S
C39          C40   1.382       .  A
C39          H42   1.082       .  S
C40         N436   1.356       .  A
C40         C232   1.474       .  S
N43          C44   1.355       .  A
N43         C847   1.358   1_554  A
N43         C202   1.442       .  S
C44         C212   1.476       .  S
C44         C845   1.382   1_554  A
C45          C46   1.377       .  A
C45         C444   1.382       .  A
C45          H48   1.082       .  S
C46          C47   1.384       .  A
C46          H49   1.082       .  S
C47         N443   1.358       .  A
C47         C192   1.485       .  S
N50          C51   1.351       .  A
N50         C454   1.353       .  A
N50         C175   1.438       .  S
C51         C182   1.471       .  S
C51         C452   1.382       .  A
C52          C53   1.379       .  A
C52         C851   1.382   1_554  A
C52          H55   1.082       .  S
C53          C54   1.383       .  A
C53          H56   1.082       .  S
C54         N850   1.353   1_554  A
C54         C162   1.475       .  S
O57         Ni63   1.937       .  S
O57          C78   1.275       .  A
O58         Ni81   1.901       .  S
O58          C67   1.267       .  A
O59         Ni63   1.903       .  S
O59         Ni81   1.898       .  S
O59         Ni75   1.909       .  S
O59          H82   0.967       .  S
C60         C275   1.496       .  S
C60          O77   1.275       .  A
C60          O69   1.280       .  A
O61         Ni80   1.942       .  S
O61          C67   1.276       .  A
O62         Ni80   1.904       .  S
O62          C64   1.269       .  A
Ni63         O66   1.934       .  S
Ni63         O68   1.907       .  S
C64         C265   1.491       .  S
C64          O74   1.275       .  A
O65         Ni81   1.911       .  S
O65          C71   1.275       .  A
O66          C71   1.278       .  A
C67         C215   1.485       .  S
O68          C70   1.270       .  A
O69         Ni80   1.937       .  S
C70         C235   1.492       .  S
C70          O76   1.275       .  A
C71         C245   1.480       .  S
H72          O73   0.965       .  S
O73         Ni81   1.908       .  S
O73         Ni75   1.900       .  S
O73         Ni80   1.904       .  S
O74         Ni75   1.937       .  S
Ni75         O79   1.902       .  S
Ni75         O77   1.913       .  S
O76         Ni81   1.935       .  S
C78         C185   1.484       .  S
C78          O79   1.268       .  A
O83         Ni89   1.942       .  S
O83         C104   1.275       .  A
O84        Ni107   1.892       .  S
O84          C93   1.263       .  A
O85         Ni89   1.910       .  S
O85        Ni107   1.903   1_565  S
O85        Ni101   1.904       .  S
O85         H108   0.966       .  S
C86         C332   1.489       .  S
C86         O103   1.271       .  A
C86          O95   1.279   1_565  A
O87        Ni106   1.947       .  S
O87          C93   1.276       .  A
O88        Ni106   1.902       .  S
O88          C90   1.269   1_545  A
Ni89         O92   1.935       .  S
Ni89         O94   1.905       .  S
C90         C325   1.490       .  S
C90         O100   1.275       .  A
O91        Ni107   1.906       .  S
O91          C97   1.273   1_545  A
O92          C97   1.279       .  A
C93         C225   1.491       .  S
O94          C96   1.269       .  A
O95        Ni106   1.936       .  S
C96         C292   1.483   1_565  S
C96         O102   1.270   1_565  A
C97         C305   1.490       .  S
H98          O99   0.965       .  S
O99        Ni107   1.900       .  S
O99        Ni101   1.902   1_545  S
O99        Ni106   1.907       .  S
O100       Ni101   1.936       .  S
Ni101       O105   1.902       .  S
Ni101       O103   1.898       .  S
O102       Ni107   1.924       .  S
C104        C255   1.489       .  S
C104        O105   1.266       .  A
O109       Ni115   1.929       .  S
O109        C130   1.272   1_545  A
O110       Ni133   1.903       .  S
O110        C119   1.267   1_545  A
O111       Ni115   1.907       .  S
O111       Ni133   1.907   1_655  S
O111       Ni127   1.906   1_545  S
O111        H134   0.967   1_545  S
C112        C382   1.493       .  S
C112        O129   1.271   1_455  A
C112        O121   1.280       .  A
O113       Ni132   1.938       .  S
O113        C119   1.275       .  A
O114       Ni132   1.905       .  S
O114        C116   1.269       .  A
Ni115       O118   1.924       .  S
Ni115       O120   1.900       .  S
C116        C375   1.483   1_455  S
C116        O126   1.272   1_455  A
O117       Ni133   1.915       .  S
O117        C123   1.275       .  A
O118        C123   1.275   1_655  A
C119        C282   1.485   1_565  S
O120        C122   1.269   1_655  A
O121       Ni132   1.940       .  S
C122        C342   1.485       .  S
C122        O128   1.275       .  A
C123        C355   1.492       .  S
H124        O125   0.965       .  S
O125       Ni133   1.912   1_565  S
O125       Ni127   1.902   1_455  S
O125       Ni132   1.911       .  S
O126       Ni127   1.927       .  S
Ni127       O131   1.901       .  S
Ni127       O129   1.899       .  S
O128       Ni133   1.938       .  S
C130        C312   1.488       .  S
C130        O131   1.264       .  A
O135       Ni141   1.943       .  S
O135        C156   1.275       .  A
O136       Ni159   1.909       .  S
O136        C145   1.268       .  A
O137       Ni141   1.907       .  S
O137       Ni159   1.905       .  S
O137       Ni153   1.907   1_455  S
O137        H160   0.968       .  S
C138        C172   1.493       .  S
C138        O155   1.274       .  A
C138        O147   1.278       .  A
O139       Ni158   1.937       .  S
O139        C145   1.274   1_655  A
O140       Ni158   1.900       .  S
O140        C142   1.269       .  A
Ni141       O144   1.939       .  S
Ni141       O146   1.899       .  S
C142        C165   1.483       .  S
C142        O152   1.272       .  A
O143       Ni159   1.903       .  S
O143        C149   1.272       .  A
O144        C149   1.280       .  A
C145        C365   1.490       .  S
O146        C148   1.269       .  A
O147       Ni158   1.931       .  S
C148        C195   1.486       .  S
C148        O154   1.275       .  A
C149        C205   1.494       .  S
H150        O151   0.961   1_455  S
O151       Ni159   1.908   1_655  S
O151       Ni153   1.905       .  S
O151       Ni158   1.908       .  S
O152       Ni153   1.926       .  S
Ni153       O157   1.901       .  S
Ni153       O155   1.910       .  S
O154       Ni159   1.937       .  S
C156        C395   1.483   1_455  S
C156        O157   1.265   1_455  A
C161        C162   1.401       .  A
C161        C166   1.392       .  A
C161        F168   1.357       .  S
C162        C163   1.404       .  A
C163        C164   1.402       .  A
C163        F170   1.358       .  S
C164        C165   1.411       .  A
C164        F169   1.358       .  S
C165        C166   1.410       .  A
C166        F167   1.358       .  S
C171        C172   1.415       .  A
C171        C176   1.401       .  A
C171        F178   1.358       .  S
C172        C173   1.415       .  A
C173        C174   1.396       .  A
C173        F180   1.358       .  S
C174        C175   1.400       .  A
C174        F579   1.358       .  S
C175        C176   1.401       .  A
C176        F177   1.356       .  S
F179        C974   1.358       .  S
C181        C182   1.401       .  A
C181        C186   1.402       .  A
C181        F188   1.357       .  S
C182        C183   1.400       .  A
C183        C184   1.395       .  A
C183        F590   1.358       .  S
C184        C185   1.411       .  A
C184        F189   1.358       .  S
C185        C186   1.411       .  A
C186        F187   1.358       .  S
F190        C983   1.358       .  S
C191        C192   1.408       .  A
C191        C196   1.403       .  A
C191        F598   1.358       .  S
C192        C193   1.404       .  A
C193        C194   1.395       .  A
C193        F200   1.356       .  S
C194        C195   1.410       .  A
C194        F199   1.358       .  S
C195        C196   1.409       .  A
C196        F197   1.358       .  S
F198        C991   1.358       .  S
C201        C202   1.404       .  A
C201        C206   1.402       .  A
C201       F1008   1.356       .  S
C202        C203   1.401       .  A
C203        C204   1.397       .  A
C203        F210   1.357       .  S
C204        C205   1.415       .  A
C204        F209   1.358       .  S
C205        C206   1.414       .  A
C206        F207   1.358       .  S
F208        C601   1.356       .  S
C211        C212   1.401       .  A
C211        C216   1.396       .  A
C211        F218   1.359       .  S
C212        C213   1.403       .  A
C213        C214   1.405       .  A
C213       F1020   1.357       .  S
C214        C215   1.410       .  A
C214        F219   1.357       .  S
C215        C216   1.410       .  A
C216        F217   1.358       .  S
F220        C613   1.357       .  S
C221        C222   1.404       .  A
C221        C226   1.400       .  A
C221        F228   1.357       .  S
C222        C223   1.402       .  A
C223        C224   1.398       .  A
C223        F230   1.358       .  S
C224        C225   1.414       .  A
C224        F229   1.358       .  S
C225        C226   1.412       .  A
C226        F227   1.358       .  S
C231        C232   1.399       .  A
C231        C236   1.394       .  A
C231        F238   1.359       .  S
C232        C233   1.403       .  A
C233        C234   1.405       .  A
C233        F240   1.358       .  S
C234        C235   1.413       .  A
C234        F239   1.357       .  S
C235        C236   1.413       .  A
C236        F237   1.358       .  S
C241        C242   1.406       .  A
C241        C246   1.404       .  A
C241       F1048   1.356       .  S
C242        C243   1.403       .  A
C243        C244   1.395       .  A
C243        F250   1.357       .  S
C244        C245   1.408       .  A
C244        F249   1.359       .  S
C245        C246   1.408       .  A
C246        F247   1.358       .  S
F248        C641   1.356       .  S
C251        C252   1.401       .  A
C251        C256   1.397       .  A
C251        F258   1.358       .  S
C252        C253   1.404       .  A
C253        C254   1.406       .  A
C253        F260   1.357       .  S
C254        C255   1.412       .  A
C254        F259   1.358       .  S
C255        C256   1.411       .  A
C256        F257   1.358       .  S
C261        C262   1.403       .  A
C261        C266   1.398       .  A
C261        F268   1.357       .  S
C262        C263   1.405       .  A
C263        C264   1.403       .  A
C263        F270   1.358       .  S
C264        C265   1.411       .  A
C264        F269   1.358       .  S
C265        C266   1.413       .  A
C266        F267   1.358       .  S
C271        C272   1.402       .  A
C271        C276   1.401       .  A
C271        F278   1.355       .  S
C272        C273   1.402       .  A
C273        C274   1.399       .  A
C273        F280   1.358       .  S
C274        C275   1.415       .  A
C274        F279   1.358       .  S
C275        C276   1.414       .  A
C276        F277   1.357       .  S
C281        C282   1.411       .  A
C281        C286   1.405       .  A
C281        F288   1.357       .  S
C282        C283   1.410   1_545  A
C283        C284   1.394       .  A
C283        F290   1.358       .  S
C284        C285   1.400   1_565  A
C284       F1089   1.359       .  S
C285        C286   1.403       .  A
C286        F287   1.357       .  S
F289        C684   1.359       .  S
C291        C292   1.409   1_565  A
C291        C296   1.396       .  A
C291        F298   1.358       .  S
C292        C293   1.410       .  A
C293        C294   1.400       .  A
C293        F300   1.358       .  S
C294        C295   1.404       .  A
C294        F299   1.358       .  S
C295        C296   1.404   1_545  A
C296        F697   1.357       .  S
F297       C1096   1.357       .  S
C301        C302   1.403       .  A
C301        C306   1.398       .  A
C301        F308   1.358       .  S
C302        C303   1.403   1_545  A
C303        C304   1.398       .  A
C303       F1110   1.354       .  S
C304        C305   1.411       .  A
C304        F309   1.357       .  S
C305        C306   1.413   1_565  A
C306        F307   1.357       .  S
F310        C703   1.354       .  S
C311        C312   1.412       .  A
C311        C316   1.403       .  A
C311        F318   1.358       .  S
C312        C313   1.412   1_565  A
C313        C314   1.394       .  A
C313        F320   1.358       .  S
C314        C315   1.400   1_545  A
C314        F719   1.356       .  S
C315        C316   1.404       .  A
C316        F317   1.358       .  S
F319       C1114   1.356       .  S
C321        C322   1.402       .  A
C321        C326   1.395   1_565  A
C321       F1128   1.355   1_565  S
C322        C323   1.406       .  A
C323        C324   1.403       .  A
C323        F330   1.358       .  S
C324        C325   1.411       .  A
C324        F329   1.358       .  S
C325        C326   1.412   1_565  A
C326        F327   1.358       .  S
F328        C721   1.355   1_545  S
C331        C332   1.411   1_545  A
C331        C336   1.398       .  A
C331        F338   1.358       .  S
C332        C333   1.415       .  A
C333        C334   1.396       .  A
C333        F340   1.358       .  S
C334        C335   1.400       .  A
C334        F339   1.358       .  S
C335        C336   1.403   1_565  A
C336        F737   1.353       .  S
F337       C1136   1.353       .  S
C341        C342   1.411   1_655  A
C341        C346   1.398   1_655  A
C341        F348   1.359       .  S
C342        C343   1.408       .  A
C343        C344   1.402       .  A
C343        F350   1.358       .  S
C344        C345   1.406       .  A
C344        F349   1.357       .  S
C345        C346   1.405       .  A
C346        F347   1.357   1_455  S
C351        C352   1.403       .  A
C351        C356   1.399       .  A
C351       F1158   1.357       .  S
C352        C353   1.401   1_455  A
C353        C354   1.398       .  A
C353        F360   1.356       .  S
C354        C355   1.415   1_655  A
C354        F359   1.358       .  S
C355        C356   1.413       .  A
C356        F357   1.358       .  S
F358        C751   1.357       .  S
C361        C362   1.402   1_655  A
C361        C366   1.397       .  A
C361        F368   1.358       .  S
C362        C363   1.404       .  A
C363        C364   1.407       .  A
C363        F370   1.357       .  S
C364        C365   1.411       .  A
C364        F369   1.357       .  S
C365        C366   1.412   1_455  A
C366        F367   1.358       .  S
C371        C372   1.405   1_455  A
C371        C376   1.396       .  A
C371        F378   1.356       .  S
C372        C373   1.407       .  A
C373        C374   1.401       .  A
C373        F380   1.358       .  S
C374        C375   1.409       .  A
C374        F379   1.358       .  S
C375        C376   1.408   1_655  A
C376        F377   1.358       .  S
C381        C382   1.412       .  A
C381        C386   1.400       .  A
C381        F388   1.357       .  S
C382        C383   1.416   1_455  A
C383        C384   1.397       .  A
C383        F390   1.358       .  S
C384        C385   1.401       .  A
C384        F389   1.358       .  S
C385        C386   1.404   1_655  A
C386        F387   1.355       .  S
C391        C392   1.401   1_455  A
C391        C396   1.395       .  A
C391        F398   1.358       .  S
C392        C393   1.403       .  A
C393        C394   1.405       .  A
C393        F400   1.358       .  S
C394        C395   1.411       .  A
C394        F399   1.357       .  S
C395        C396   1.408   1_655  A
C396        F397   1.358       .  S
N401        C805   1.358       .  A
N401        C402   1.354       .  A
N401        C785   1.441       .  S
C402        C792   1.474       .  S
C402        C803   1.382       .  A
C403        C404   1.377       .  A
C403        H406   1.082       .  S
C404        C405   1.384       .  A
C404        H407   1.082       .  S
C405        C772   1.484       .  S
N408        C409   1.357       .  A
N408        C752   1.439       .  S
C409        C762   1.480       .  S
C410        C809   1.382       .  A
C410        C411   1.377       .  A
C410        H413   1.082       .  S
C411        C412   1.383       .  A
C411        H414   1.082       .  S
C412        N808   1.357       .  A
C412        C745   1.484       .  S
N415        C819   1.356       .  A
N415        C416   1.355       .  A
N415        C735   1.438       .  S
C416        C715   1.476       .  S
C416        C817   1.381       .  A
C417        C418   1.378       .  A
C417        H420   1.082       .  S
C418        C419   1.383       .  A
C418        H421   1.082       .  S
C419        C722   1.482       .  S
N422        C423   1.355       .  A
N422        C702   1.441       .  S
C423        C685   1.475       .  S
C424        C823   1.382       .  A
C424        C425   1.377       .  A
C424        H427   1.082       .  S
C425        C426   1.383       .  A
C425        H428   1.082       .  S
C426        N822   1.356       .  A
C426        C695   1.478       .  S
N429        C833   1.356       .  A
N429        C430   1.357       .  A
N429        C672   1.441       .  S
C430        C652   1.478       .  S
C430        C831   1.382       .  A
C431        C432   1.379       .  A
C431        H434   1.082       .  S
C432        C433   1.383       .  A
C432        H435   1.082       .  S
C433        C662   1.482       .  S
N436        C437   1.356       .  A
N436        C642   1.441       .  S
C437        C622   1.480       .  S
C438        C837   1.383       .  A
C438        C439   1.376       .  A
C438        H441   1.082       .  S
C439        C440   1.382       .  A
C439        H442   1.082       .  S
C440        N836   1.356       .  A
C440        C632   1.474       .  S
N443        C444   1.355       .  A
N443        C602   1.442       .  S
C444        C612   1.476       .  S
C445        C844   1.382       .  A
C445        C446   1.377       .  A
C445        H448   1.082       .  S
C446        C447   1.384       .  A
C446        H449   1.082       .  S
C447        N843   1.358       .  A
C447        C592   1.485       .  S
N450        C854   1.353       .  A
N450        C451   1.351       .  A
N450        C575   1.438       .  S
C451        C582   1.470       .  S
C451        C852   1.382       .  A
C452        C453   1.379       .  A
C452        H455   1.082       .  S
C453        C454   1.383       .  A
C453        H456   1.082       .  S
C454        C562   1.475       .  S
O457       Ni463   1.937       .  S
O457        C478   1.275       .  A
O458       Ni481   1.901       .  S
O458        C467   1.267       .  A
O459       Ni463   1.903       .  S
O459       Ni481   1.898       .  S
O459       Ni475   1.909       .  S
O459        H482   0.967       .  S
C460        C675   1.496       .  S
C460        O477   1.275       .  A
C460        O469   1.280       .  A
O461       Ni480   1.942       .  S
O461        C467   1.276       .  A
O462       Ni480   1.904       .  S
O462        C464   1.269       .  A
Ni463       O466   1.934       .  S
Ni463       O468   1.907       .  S
C464        C665   1.490       .  S
C464        O474   1.275       .  A
O465       Ni481   1.911       .  S
O465        C471   1.275       .  A
O466        C471   1.278       .  A
C467        C615   1.485       .  S
O468        C470   1.270       .  A
O469       Ni480   1.938       .  S
C470        C635   1.492       .  S
C470        O476   1.275       .  A
C471        C645   1.480       .  S
H472        O473   0.965       .  S
O473       Ni481   1.908       .  S
O473       Ni475   1.900       .  S
O473       Ni480   1.904       .  S
O474       Ni475   1.937       .  S
Ni475       O479   1.902       .  S
Ni475       O477   1.913       .  S
O476       Ni481   1.935       .  S
C478        C585   1.484       .  S
C478        O479   1.268       .  A
O483       Ni489   1.941       .  S
O483        C504   1.275       .  A
O484       Ni507   1.892       .  S
O484        C493   1.263       .  A
O485       Ni489   1.910       .  S
O485       Ni507   1.902   1_565  S
O485       Ni501   1.904       .  S
O485        H508   0.966       .  S
C486        C732   1.489       .  S
C486        O503   1.271       .  A
C486        O495   1.279   1_565  A
O487       Ni506   1.947       .  S
O487        C493   1.276       .  A
O488       Ni506   1.902       .  S
O488        C490   1.269   1_545  A
Ni489       O492   1.934       .  S
Ni489       O494   1.905       .  S
C490        C725   1.490       .  S
C490        O500   1.275       .  A
O491       Ni507   1.906       .  S
O491        C497   1.273   1_545  A
O492        C497   1.279       .  A
C493        C625   1.491       .  S
O494        C496   1.269       .  A
O495       Ni506   1.936       .  S
C496        C692   1.483   1_565  S
C496        O502   1.270   1_565  A
C497        C705   1.489       .  S
H498        O499   0.965       .  S
O499       Ni507   1.900       .  S
O499       Ni501   1.902   1_545  S
O499       Ni506   1.907       .  S
O500       Ni501   1.937       .  S
Ni501       O505   1.902       .  S
Ni501       O503   1.898       .  S
O502       Ni507   1.924       .  S
C504        C655   1.488       .  S
C504        O505   1.266       .  A
O509       Ni515   1.930       .  S
O509        C530   1.272   1_545  A
O510       Ni533   1.903       .  S
O510        C519   1.267   1_545  A
O511       Ni515   1.906       .  S
O511       Ni533   1.907   1_655  S
O511       Ni527   1.906   1_545  S
O511        H534   0.967   1_545  S
C512        C782   1.493       .  S
C512        O529   1.270   1_455  A
C512        O521   1.280       .  A
O513       Ni532   1.938       .  S
O513        C519   1.275       .  A
O514       Ni532   1.905       .  S
O514        C516   1.269       .  A
Ni515       O518   1.923       .  S
Ni515       O520   1.900       .  S
C516        C775   1.483   1_455  S
C516        O526   1.272   1_455  A
O517       Ni533   1.915       .  S
O517        C523   1.275       .  A
O518        C523   1.275   1_655  A
C519        C682   1.485   1_565  S
O520        C522   1.269   1_655  A
O521       Ni532   1.941       .  S
C522        C742   1.485       .  S
C522        O528   1.275       .  A
C523        C755   1.492       .  S
H524        O525   0.965       .  S
O525       Ni533   1.912   1_565  S
O525       Ni527   1.902   1_455  S
O525       Ni532   1.911       .  S
O526       Ni527   1.928       .  S
Ni527       O531   1.900       .  S
Ni527       O529   1.899       .  S
O528       Ni533   1.938       .  S
C530        C712   1.488       .  S
C530        O531   1.264       .  A
O535       Ni541   1.944       .  S
O535        C556   1.276       .  A
O536       Ni559   1.909       .  S
O536        C545   1.268       .  A
O537       Ni541   1.907       .  S
O537       Ni559   1.904       .  S
O537       Ni553   1.906   1_455  S
O537        H560   0.968       .  S
C538        C572   1.493       .  S
C538        O555   1.274       .  A
C538        O547   1.278       .  A
O539       Ni558   1.937       .  S
O539        C545   1.274   1_655  A
O540       Ni558   1.900       .  S
O540        C542   1.269       .  A
Ni541       O544   1.940       .  S
Ni541       O546   1.899       .  S
C542        C565   1.484       .  S
C542        O552   1.271       .  A
O543       Ni559   1.903       .  S
O543        C549   1.273       .  A
O544        C549   1.280       .  A
C545        C765   1.490       .  S
O546        C548   1.269       .  A
O547       Ni558   1.931       .  S
C548        C595   1.486       .  S
C548        O554   1.275       .  A
C549        C605   1.495       .  S
H550        O551   0.961   1_455  S
O551       Ni559   1.909   1_655  S
O551       Ni553   1.905       .  S
O551       Ni558   1.908       .  S
O552       Ni553   1.926       .  S
Ni553       O557   1.900       .  S
Ni553       O555   1.910       .  S
O554       Ni559   1.936       .  S
C556        C795   1.483   1_455  S
C556        O557   1.265   1_455  A
C561        C562   1.401       .  A
C561        C566   1.392       .  A
C561        F568   1.357       .  S
C562        C563   1.404       .  A
C563        C564   1.402       .  A
C563        F570   1.358       .  S
C564        C565   1.411       .  A
C564        F569   1.358       .  S
C565        C566   1.410       .  A
C566        F567   1.358       .  S
C571        C572   1.415       .  A
C571        C576   1.401       .  A
C571        F578   1.358       .  S
C572        C573   1.415       .  A
C573        C574   1.396       .  A
C573        F580   1.358       .  S
C574        C575   1.400       .  A
C574        F979   1.358       .  S
C575        C576   1.401       .  A
C576        F577   1.356       .  S
C581        C582   1.401       .  A
C581        C586   1.402       .  A
C581        F588   1.358       .  S
C582        C583   1.400       .  A
C583        C584   1.395       .  A
C583        F990   1.358       .  S
C584        C585   1.411       .  A
C584        F589   1.358       .  S
C585        C586   1.411       .  A
C586        F587   1.358       .  S
C591        C592   1.407       .  A
C591        C596   1.403       .  A
C591        F998   1.358       .  S
C592        C593   1.404       .  A
C593        C594   1.395       .  A
C593        F600   1.356       .  S
C594        C595   1.410       .  A
C594        F599   1.358       .  S
C595        C596   1.409       .  A
C596        F597   1.358       .  S
C601        C602   1.404       .  A
C601        C606   1.402       .  A
C602        C603   1.401       .  A
C603        C604   1.397       .  A
C603        F610   1.357       .  S
C604        C605   1.415       .  A
C604        F609   1.358       .  S
C605        C606   1.414       .  A
C606        F607   1.358       .  S
F608       C1001   1.356       .  S
C611        C612   1.401       .  A
C611        C616   1.396       .  A
C611        F618   1.358       .  S
C612        C613   1.403       .  A
C613        C614   1.405       .  A
C614        C615   1.411       .  A
C614        F619   1.357       .  S
C615        C616   1.410       .  A
C616        F617   1.358       .  S
F620       C1013   1.357       .  S
C621        C622   1.404       .  A
C621        C626   1.400       .  A
C621        F628   1.357       .  S
C622        C623   1.402       .  A
C623        C624   1.398       .  A
C623        F630   1.358       .  S
C624        C625   1.414       .  A
C624        F629   1.358       .  S
C625        C626   1.412       .  A
C626        F627   1.358       .  S
C631        C632   1.399       .  A
C631        C636   1.395       .  A
C631        F638   1.359       .  S
C632        C633   1.403       .  A
C633        C634   1.405       .  A
C633        F640   1.358       .  S
C634        C635   1.413       .  A
C634        F639   1.357       .  S
C635        C636   1.413       .  A
C636        F637   1.358       .  S
C641        C642   1.406       .  A
C641        C646   1.404       .  A
C642        C643   1.403       .  A
C643        C644   1.395       .  A
C643        F650   1.357       .  S
C644        C645   1.408       .  A
C644        F649   1.359       .  S
C645        C646   1.408       .  A
C646        F647   1.358       .  S
F648       C1041   1.356       .  S
C651        C652   1.401       .  A
C651        C656   1.397       .  A
C651        F658   1.358       .  S
C652        C653   1.404       .  A
C653        C654   1.406       .  A
C653        F660   1.357       .  S
C654        C655   1.412       .  A
C654        F659   1.358       .  S
C655        C656   1.411       .  A
C656        F657   1.358       .  S
C661        C662   1.403       .  A
C661        C666   1.398       .  A
C661        F668   1.357       .  S
C662        C663   1.405       .  A
C663        C664   1.403       .  A
C663        F670   1.358       .  S
C664        C665   1.411       .  A
C664        F669   1.358       .  S
C665        C666   1.413       .  A
C666        F667   1.358       .  S
C671        C672   1.402       .  A
C671        C676   1.401       .  A
C671        F678   1.355       .  S
C672        C673   1.402       .  A
C673        C674   1.399       .  A
C673        F680   1.358       .  S
C674        C675   1.415       .  A
C674        F679   1.358       .  S
C675        C676   1.414       .  A
C676        F677   1.357       .  S
C681        C682   1.411       .  A
C681        C686   1.405       .  A
C681        F688   1.357       .  S
C682        C683   1.410   1_545  A
C683        C684   1.394       .  A
C683        F690   1.358       .  S
C684        C685   1.400   1_565  A
C685        C686   1.403       .  A
C686        F687   1.357       .  S
F689       C1084   1.359       .  S
C691        C692   1.409   1_565  A
C691        C696   1.396       .  A
C691        F698   1.358       .  S
C692        C693   1.410       .  A
C693        C694   1.400       .  A
C693        F700   1.358       .  S
C694        C695   1.404       .  A
C694        F699   1.358       .  S
C695        C696   1.403   1_545  A
C696       F1097   1.357       .  S
C701        C702   1.403       .  A
C701        C706   1.398       .  A
C701        F708   1.358       .  S
C702        C703   1.403   1_545  A
C703        C704   1.398       .  A
C704        C705   1.411       .  A
C704        F709   1.357       .  S
C705        C706   1.413   1_565  A
C706        F707   1.357       .  S
F710       C1103   1.354       .  S
C711        C712   1.412       .  A
C711        C716   1.403       .  A
C711        F718   1.358       .  S
C712        C713   1.412   1_565  A
C713        C714   1.394       .  A
C713        F720   1.358       .  S
C714        C715   1.400   1_545  A
C714       F1119   1.356       .  S
C715        C716   1.404       .  A
C716        F717   1.358       .  S
C721        C722   1.402       .  A
C721        C726   1.395   1_565  A
C722        C723   1.406       .  A
C723        C724   1.403       .  A
C723        F730   1.358       .  S
C724        C725   1.412       .  A
C724        F729   1.358       .  S
C725        C726   1.412   1_565  A
C726        F727   1.358       .  S
F728       C1121   1.355   1_545  S
C731        C732   1.411   1_545  A
C731        C736   1.399       .  A
C731        F738   1.358       .  S
C732        C733   1.415       .  A
C733        C734   1.396       .  A
C733        F740   1.358       .  S
C734        C735   1.400       .  A
C734        F739   1.358       .  S
C735        C736   1.403   1_565  A
C736       F1137   1.353       .  S
C741        C742   1.411   1_655  A
C741        C746   1.398   1_655  A
C741        F748   1.359       .  S
C742        C743   1.408       .  A
C743        C744   1.402       .  A
C743        F750   1.358       .  S
C744        C745   1.406       .  A
C744        F749   1.357       .  S
C745        C746   1.405       .  A
C746        F747   1.357   1_455  S
C751        C752   1.403       .  A
C751        C756   1.399       .  A
C752        C753   1.400   1_455  A
C753        C754   1.398       .  A
C753        F760   1.356       .  S
C754        C755   1.415   1_655  A
C754        F759   1.358       .  S
C755        C756   1.413       .  A
C756        F757   1.358       .  S
F758       C1151   1.357       .  S
C761        C762   1.402   1_655  A
C761        C766   1.397       .  A
C761        F768   1.358       .  S
C762        C763   1.404       .  A
C763        C764   1.407       .  A
C763        F770   1.357       .  S
C764        C765   1.411       .  A
C764        F769   1.357       .  S
C765        C766   1.411   1_455  A
C766        F767   1.358       .  S
C771        C772   1.405   1_455  A
C771        C776   1.396       .  A
C771        F778   1.356       .  S
C772        C773   1.407       .  A
C773        C774   1.401       .  A
C773        F780   1.358       .  S
C774        C775   1.409       .  A
C774        F779   1.358       .  S
C775        C776   1.408   1_655  A
C776        F777   1.358       .  S
C781        C782   1.412       .  A
C781        C786   1.400       .  A
C781        F788   1.357       .  S
C782        C783   1.416   1_455  A
C783        C784   1.397       .  A
C783        F790   1.358       .  S
C784        C785   1.401       .  A
C784        F789   1.358       .  S
C785        C786   1.404   1_655  A
C786        F787   1.355       .  S
C791        C792   1.401   1_455  A
C791        C796   1.395       .  A
C791        F798   1.358       .  S
C792        C793   1.403       .  A
C793        C794   1.405       .  A
C793        F800   1.358       .  S
C794        C795   1.411       .  A
C794        F799   1.358       .  S
C795        C796   1.409   1_655  A
C796        F797   1.358       .  S
N801        C802   1.354       .  A
N801       C1185   1.441       .  S
C802       C1192   1.475       .  S
C803        C804   1.377       .  A
C803        H806   1.082       .  S
C804        C805   1.384       .  A
C804        H807   1.082       .  S
C805       C1172   1.483       .  S
N808        C809   1.357       .  A
N808       C1152   1.439       .  S
C809       C1162   1.480       .  S
C810        C811   1.378       .  A
C810        H813   1.082       .  S
C811        C812   1.383       .  A
C811        H814   1.082       .  S
C812       C1145   1.484       .  S
N815        C816   1.355       .  A
N815       C1135   1.439       .  S
C816       C1115   1.475       .  S
C817        C818   1.378       .  A
C817        H820   1.082       .  S
C818        C819   1.383       .  A
C818        H821   1.082       .  S
C819       C1122   1.482       .  S
N822        C823   1.355       .  A
N822       C1102   1.442       .  S
C823       C1085   1.475       .  S
C824        C825   1.377       .  A
C824        H827   1.082       .  S
C825        C826   1.383       .  A
C825        H828   1.082       .  S
C826       C1095   1.478       .  S
N829        C830   1.357       .  A
N829       C1072   1.440       .  S
C830       C1052   1.478       .  S
C831        C832   1.379       .  A
C831        H834   1.082       .  S
C832        C833   1.383       .  A
C832        H835   1.082       .  S
C833       C1062   1.482       .  S
N836        C837   1.356       .  A
N836       C1042   1.441       .  S
C837       C1022   1.480       .  S
C838        C839   1.376       .  A
C838        H841   1.082       .  S
C839        C840   1.382       .  A
C839        H842   1.082       .  S
C840       C1032   1.474       .  S
N843        C844   1.355       .  A
N843       C1002   1.442       .  S
C844       C1012   1.475       .  S
C845        C846   1.377       .  A
C845        H848   1.082       .  S
C846        C847   1.384       .  A
C846        H849   1.082       .  S
C847        C992   1.485       .  S
N850        C851   1.351       .  A
N850        C975   1.438       .  S
C851        C982   1.470       .  S
C852        C853   1.379       .  A
C852        H855   1.082       .  S
C853        C854   1.383       .  A
C853        H856   1.082       .  S
C854        C962   1.474       .  S
O857       Ni863   1.936       .  S
O857        C878   1.275       .  A
O858       Ni881   1.901       .  S
O858        C867   1.267       .  A
O859       Ni863   1.903       .  S
O859       Ni881   1.898       .  S
O859       Ni875   1.909       .  S
O859        H882   0.967       .  S
C860       C1075   1.496       .  S
C860        O877   1.275       .  A
C860        O869   1.280       .  A
O861       Ni880   1.941       .  S
O861        C867   1.276       .  A
O862       Ni880   1.904       .  S
O862        C864   1.269       .  A
Ni863       O866   1.934       .  S
Ni863       O868   1.907       .  S
C864       C1065   1.490       .  S
C864        O874   1.275       .  A
O865       Ni881   1.911       .  S
O865        C871   1.275       .  A
O866        C871   1.278       .  A
C867       C1015   1.484       .  S
O868        C870   1.270       .  A
O869       Ni880   1.937       .  S
C870       C1035   1.492       .  S
C870        O876   1.275       .  A
C871       C1045   1.480       .  S
H872        O873   0.965       .  S
O873       Ni881   1.908       .  S
O873       Ni875   1.900       .  S
O873       Ni880   1.904       .  S
O874       Ni875   1.937       .  S
Ni875       O879   1.902       .  S
Ni875       O877   1.913       .  S
O876       Ni881   1.934       .  S
C878        C985   1.484       .  S
C878        O879   1.268       .  A
O883       Ni889   1.941       .  S
O883        C904   1.275       .  A
O884       Ni907   1.892       .  S
O884        C893   1.263       .  A
O885       Ni889   1.910       .  S
O885       Ni907   1.902   1_565  S
O885       Ni901   1.904       .  S
O885        H908   0.966       .  S
C886       C1132   1.489       .  S
C886        O903   1.271       .  A
C886        O895   1.279   1_565  A
O887       Ni906   1.947       .  S
O887        C893   1.276       .  A
O888       Ni906   1.902       .  S
O888        C890   1.269   1_545  A
Ni889       O892   1.935       .  S
Ni889       O894   1.905       .  S
C890       C1125   1.490       .  S
C890        O900   1.275       .  A
O891       Ni907   1.906       .  S
O891        C897   1.273   1_545  A
O892        C897   1.279       .  A
C893       C1025   1.491       .  S
O894        C896   1.269       .  A
O895       Ni906   1.936       .  S
C896       C1092   1.483   1_565  S
C896        O902   1.270   1_565  A
C897       C1105   1.489       .  S
H898        O899   0.965       .  S
O899       Ni907   1.899       .  S
O899       Ni901   1.902   1_545  S
O899       Ni906   1.907       .  S
O900       Ni901   1.937       .  S
Ni901       O905   1.902       .  S
Ni901       O903   1.898       .  S
O902       Ni907   1.924       .  S
C904       C1055   1.488       .  S
C904        O905   1.266       .  A
O909       Ni915   1.929       .  S
O909        C930   1.272   1_545  A
O910       Ni933   1.903       .  S
O910        C919   1.267   1_545  A
O911       Ni915   1.907       .  S
O911       Ni933   1.907   1_655  S
O911       Ni927   1.906   1_545  S
O911        H934   0.967   1_545  S
C912       C1182   1.493       .  S
C912        O929   1.271   1_455  A
C912        O921   1.280       .  A
O913       Ni932   1.938       .  S
O913        C919   1.276       .  A
O914       Ni932   1.905       .  S
O914        C916   1.269       .  A
Ni915       O918   1.924       .  S
Ni915       O920   1.900       .  S
C916       C1175   1.483   1_455  S
C916        O926   1.272   1_455  A
O917       Ni933   1.916       .  S
O917        C923   1.275       .  A
O918        C923   1.275   1_655  A
C919       C1082   1.485   1_565  S
O920        C922   1.269   1_655  A
O921       Ni932   1.941       .  S
C922       C1142   1.485       .  S
C922        O928   1.275       .  A
C923       C1155   1.492       .  S
H924        O925   0.965       .  S
O925       Ni933   1.912   1_565  S
O925       Ni927   1.902   1_455  S
O925       Ni932   1.911       .  S
O926       Ni927   1.927       .  S
Ni927       O931   1.900       .  S
Ni927       O929   1.899       .  S
O928       Ni933   1.938       .  S
C930       C1112   1.488       .  S
C930        O931   1.264       .  A
O935       Ni941   1.943       .  S
O935        C956   1.276       .  A
O936       Ni959   1.909       .  S
O936        C945   1.268       .  A
O937       Ni941   1.907       .  S
O937       Ni959   1.904       .  S
O937       Ni953   1.907   1_455  S
O937        H960   0.968       .  S
C938        C972   1.493       .  S
C938        O955   1.274       .  A
C938        O947   1.278       .  A
O939       Ni958   1.938       .  S
O939        C945   1.274   1_655  A
O940       Ni958   1.900       .  S
O940        C942   1.269       .  A
Ni941       O944   1.939       .  S
Ni941       O946   1.899       .  S
C942        C965   1.483       .  S
C942        O952   1.271       .  A
O943       Ni959   1.903       .  S
O943        C949   1.273       .  A
O944        C949   1.280       .  A
C945       C1165   1.490       .  S
O946        C948   1.269       .  A
O947       Ni958   1.931       .  S
C948        C995   1.486       .  S
C948        O954   1.275       .  A
C949       C1005   1.494       .  S
H950        O951   0.961   1_455  S
O951       Ni959   1.908   1_655  S
O951       Ni953   1.904       .  S
O951       Ni958   1.908       .  S
O952       Ni953   1.926       .  S
Ni953       O957   1.901       .  S
Ni953       O955   1.910       .  S
O954       Ni959   1.936       .  S
C956       C1195   1.483   1_455  S
C956        O957   1.265   1_455  A
C961        C962   1.401       .  A
C961        C966   1.392       .  A
C961        F968   1.357       .  S
C962        C963   1.403       .  A
C963        C964   1.401       .  A
C963        F970   1.358       .  S
C964        C965   1.411       .  A
C964        F969   1.358       .  S
C965        C966   1.410       .  A
C966        F967   1.358       .  S
C971        C972   1.415       .  A
C971        C976   1.401       .  A
C971        F978   1.358       .  S
C972        C973   1.415       .  A
C973        C974   1.396       .  A
C973        F980   1.358       .  S
C974        C975   1.400       .  A
C975        C976   1.401       .  A
C976        F977   1.356       .  S
C981        C982   1.401       .  A
C981        C986   1.402       .  A
C981        F988   1.357       .  S
C982        C983   1.400       .  A
C983        C984   1.395       .  A
C984        C985   1.411       .  A
C984        F989   1.358       .  S
C985        C986   1.411       .  A
C986        F987   1.358       .  S
C991        C992   1.408       .  A
C991        C996   1.403       .  A
C992        C993   1.404       .  A
C993        C994   1.395       .  A
C993       F1000   1.356       .  S
C994        C995   1.410       .  A
C994        F999   1.358       .  S
C995        C996   1.409       .  A
C996        F997   1.358       .  S
C1001      C1002   1.404       .  A
C1001      C1006   1.402       .  A
C1002      C1003   1.401       .  A
C1003      C1004   1.397       .  A
C1003      F1010   1.357       .  S
C1004      C1005   1.415       .  A
C1004      F1009   1.358       .  S
C1005      C1006   1.414       .  A
C1006      F1007   1.358       .  S
C1011      C1012   1.401       .  A
C1011      C1016   1.396       .  A
C1011      F1018   1.358       .  S
C1012      C1013   1.403       .  A
C1013      C1014   1.405       .  A
C1014      C1015   1.410       .  A
C1014      F1019   1.357       .  S
C1015      C1016   1.410       .  A
C1016      F1017   1.358       .  S
C1021      C1022   1.404       .  A
C1021      C1026   1.400       .  A
C1021      F1028   1.357       .  S
C1022      C1023   1.402       .  A
C1023      C1024   1.398       .  A
C1023      F1030   1.358       .  S
C1024      C1025   1.414       .  A
C1024      F1029   1.358       .  S
C1025      C1026   1.412       .  A
C1026      F1027   1.358       .  S
C1031      C1032   1.399       .  A
C1031      C1036   1.394       .  A
C1031      F1038   1.359       .  S
C1032      C1033   1.403       .  A
C1033      C1034   1.405       .  A
C1033      F1040   1.358       .  S
C1034      C1035   1.414       .  A
C1034      F1039   1.358       .  S
C1035      C1036   1.414       .  A
C1036      F1037   1.358       .  S
C1041      C1042   1.406       .  A
C1041      C1046   1.404       .  A
C1042      C1043   1.403       .  A
C1043      C1044   1.395       .  A
C1043      F1050   1.357       .  S
C1044      C1045   1.408       .  A
C1044      F1049   1.359       .  S
C1045      C1046   1.408       .  A
C1046      F1047   1.358       .  S
C1051      C1052   1.401       .  A
C1051      C1056   1.397       .  A
C1051      F1058   1.358       .  S
C1052      C1053   1.404       .  A
C1053      C1054   1.406       .  A
C1053      F1060   1.357       .  S
C1054      C1055   1.412       .  A
C1054      F1059   1.358       .  S
C1055      C1056   1.411       .  A
C1056      F1057   1.358       .  S
C1061      C1062   1.403       .  A
C1061      C1066   1.398       .  A
C1061      F1068   1.357       .  S
C1062      C1063   1.405       .  A
C1063      C1064   1.403       .  A
C1063      F1070   1.358       .  S
C1064      C1065   1.411       .  A
C1064      F1069   1.358       .  S
C1065      C1066   1.413       .  A
C1066      F1067   1.358       .  S
C1071      C1072   1.402       .  A
C1071      C1076   1.401       .  A
C1071      F1078   1.355       .  S
C1072      C1073   1.402       .  A
C1073      C1074   1.399       .  A
C1073      F1080   1.358       .  S
C1074      C1075   1.415       .  A
C1074      F1079   1.358       .  S
C1075      C1076   1.414       .  A
C1076      F1077   1.357       .  S
C1081      C1082   1.411       .  A
C1081      C1086   1.405       .  A
C1081      F1088   1.357       .  S
C1082      C1083   1.410   1_545  A
C1083      C1084   1.394       .  A
C1083      F1090   1.358       .  S
C1084      C1085   1.401   1_565  A
C1085      C1086   1.403       .  A
C1086      F1087   1.357       .  S
C1091      C1092   1.409   1_565  A
C1091      C1096   1.396       .  A
C1091      F1098   1.358       .  S
C1092      C1093   1.410       .  A
C1093      C1094   1.400       .  A
C1093      F1100   1.358       .  S
C1094      C1095   1.404       .  A
C1094      F1099   1.358       .  S
C1095      C1096   1.403   1_545  A
C1101      C1102   1.403       .  A
C1101      C1106   1.398       .  A
C1101      F1108   1.358       .  S
C1102      C1103   1.403   1_545  A
C1103      C1104   1.398       .  A
C1104      C1105   1.411       .  A
C1104      F1109   1.357       .  S
C1105      C1106   1.413   1_565  A
C1106      F1107   1.357       .  S
C1111      C1112   1.412       .  A
C1111      C1116   1.403       .  A
C1111      F1118   1.358       .  S
C1112      C1113   1.412   1_565  A
C1113      C1114   1.394       .  A
C1113      F1120   1.358       .  S
C1114      C1115   1.400   1_545  A
C1115      C1116   1.404       .  A
C1116      F1117   1.358       .  S
C1121      C1122   1.402       .  A
C1121      C1126   1.395   1_565  A
C1122      C1123   1.406       .  A
C1123      C1124   1.403       .  A
C1123      F1130   1.358       .  S
C1124      C1125   1.412       .  A
C1124      F1129   1.358       .  S
C1125      C1126   1.412   1_565  A
C1126      F1127   1.358       .  S
C1131      C1132   1.411   1_545  A
C1131      C1136   1.398       .  A
C1131      F1138   1.358       .  S
C1132      C1133   1.415       .  A
C1133      C1134   1.396       .  A
C1133      F1140   1.358       .  S
C1134      C1135   1.400       .  A
C1134      F1139   1.358       .  S
C1135      C1136   1.403   1_565  A
C1141      C1142   1.411   1_655  A
C1141      C1146   1.398   1_655  A
C1141      F1148   1.359       .  S
C1142      C1143   1.408       .  A
C1143      C1144   1.402       .  A
C1143      F1150   1.358       .  S
C1144      C1145   1.406       .  A
C1144      F1149   1.357       .  S
C1145      C1146   1.405       .  A
C1146      F1147   1.357   1_455  S
C1151      C1152   1.403       .  A
C1151      C1156   1.399       .  A
C1152      C1153   1.401   1_455  A
C1153      C1154   1.398       .  A
C1153      F1160   1.356       .  S
C1154      C1155   1.415   1_655  A
C1154      F1159   1.358       .  S
C1155      C1156   1.413       .  A
C1156      F1157   1.358       .  S
C1161      C1162   1.402   1_655  A
C1161      C1166   1.397       .  A
C1161      F1168   1.358       .  S
C1162      C1163   1.404       .  A
C1163      C1164   1.407       .  A
C1163      F1170   1.357       .  S
C1164      C1165   1.411       .  A
C1164      F1169   1.357       .  S
C1165      C1166   1.411   1_455  A
C1166      F1167   1.358       .  S
C1171      C1172   1.405   1_455  A
C1171      C1176   1.396       .  A
C1171      F1178   1.356       .  S
C1172      C1173   1.407       .  A
C1173      C1174   1.401       .  A
C1173      F1180   1.358       .  S
C1174      C1175   1.409       .  A
C1174      F1179   1.358       .  S
C1175      C1176   1.408   1_655  A
C1176      F1177   1.358       .  S
C1181      C1182   1.412       .  A
C1181      C1186   1.400       .  A
C1181      F1188   1.357       .  S
C1182      C1183   1.416   1_455  A
C1183      C1184   1.397       .  A
C1183      F1190   1.358       .  S
C1184      C1185   1.401       .  A
C1184      F1189   1.358       .  S
C1185      C1186   1.404   1_655  A
C1186      F1187   1.355       .  S
C1191      C1192   1.401   1_455  A
C1191      C1196   1.395       .  A
C1191      F1198   1.358       .  S
C1192      C1193   1.403       .  A
C1193      C1194   1.405       .  A
C1193      F1200   1.358       .  S
C1194      C1195   1.411       .  A
C1194      F1199   1.357       .  S
C1195      C1196   1.409   1_655  A
C1196      F1197   1.358       .  S
