geometry optimzed in LAMMPS
_audit_creation_date              2020-12-01 
_audit_creation_method            'lammps2cif' 
_symmetry_space_group_name_H-M    'P1' 
_symmetry_Int_Tables_number       1 
_symmetry_cell_setting            triclinic 
loop_ 
_symmetry_equiv_pos_as_xyz 
  x,y,z 
_cell_length_a                    37.72928394 
_cell_length_b                    37.92995376331175 
_cell_length_c                    28.629664190902133 
_cell_angle_alpha                 90.7333136885698 
_cell_angle_beta                  90.68981430859813 
_cell_angle_gamma                 90.48235558651444 
loop_ 
_atom_site_label 
_atom_site_type_symbol 
_atom_site_fract_x 
_atom_site_fract_y 
_atom_site_fract_z 
_atom_site_charge 
N1          N  0.01375121  0.77338856  0.49354963    -0.03100
C2          C  0.00986184  0.73783716  0.49083567    -0.00500
C3          C  0.01854710  0.72124696  0.03207128    -0.23400
C4          C  0.02830634  0.74765622  0.06245565    -0.23600
C5          C  0.02414164  0.77880696  0.03871376    -0.00600
H6          H  0.01826886  0.69329804  0.03925437     0.13200
H7          H  0.03589155  0.74470207  0.09877139     0.13200
N8          N  0.98914500  0.23804223  0.02449429    -0.03100
C9          C  0.99643791  0.27314273  0.02575340    -0.00500
C10         C  0.98912945  0.28769177  0.48250525    -0.23400
C11         C  0.97784126  0.26106183  0.45324135    -0.23600
C12         C  0.97786805  0.23063660  0.47919899    -0.00600
H13         H  0.99184047  0.31524856  0.47373113     0.13200
H14         H  0.97157017  0.26329957  0.41641108     0.13200
N15         N  0.72967250  0.97116266  0.47860136    -0.03100
C16         C  0.76490661  0.96408977  0.47864280    -0.00500
C17         C  0.77490352  0.94889807  0.02026713    -0.23400
C18         C  0.74541660  0.94761909  0.04739829    -0.23600
C19         C  0.71795136  0.96106063  0.02095823    -0.00600
H20         H  0.80170517  0.94301388  0.03139699     0.13200
H21         H  0.74470570  0.94058378  0.08389899     0.13200
N22         N  0.26256420  0.02031776  0.01555601    -0.03100
C23         C  0.22726700  0.02645020  0.01923512    -0.00500
C24         C  0.20993605  0.02084637  0.47578570    -0.23400
C25         C  0.23575237  0.01308714  0.44428901    -0.23600
C26         C  0.26740648  0.01318447  0.46892099    -0.00600
H27         H  0.18181234  0.02260818  0.46838302     0.13200
H28         H  0.23204149  0.00851587  0.40714883     0.13200
N29         N  0.46701729  0.73933725  0.48109885    -0.03100
C30         C  0.45549647  0.77230379  0.47129625    -0.00500
C31         C  0.44077928  0.78662424  0.01115963    -0.23400
C32         C  0.44223404  0.76218767  0.04555201    -0.23600
C33         C  0.45969791  0.73338725  0.02720268    -0.00600
H34         H  0.43022573  0.81299007  0.01425639     0.13200
H35         H  0.43240727  0.76531575  0.08071629     0.13200
N36         N  0.52465273  0.26674403  0.00856615    -0.03100
C37         C  0.52961144  0.23154760  0.01482901    -0.00500
C38         C  0.54658581  0.21715055  0.47764878    -0.23400
C39         C  0.55497035  0.24430282  0.44884662    -0.23600
C40         C  0.54034626  0.27430675  0.46807054    -0.00600
H41         H  0.55384615  0.18979707  0.47293723     0.13200
H42         H  0.56897222  0.24224048  0.41616017     0.13200
N43         N  0.22819142  0.46978972  0.02525799    -0.03100
C44         C  0.26057756  0.45430055  0.02318289    -0.00500
C45         C  0.26514940  0.43547741  0.48258871    -0.23400
C46         C  0.23448026  0.43928665  0.45743887    -0.23600
C47         C  0.21298610  0.46138789  0.48316758    -0.00600
H48         H  0.28912216  0.42305455  0.47043497     0.13200
H49         H  0.23024425  0.43086139  0.42151910     0.13200
N50         N  0.76544065  0.52459093  0.49068994    -0.03100
C51         C  0.72937842  0.52502935  0.48672781    -0.00500
C52         C  0.71399436  0.52253742  0.02920681    -0.23400
C53         C  0.74098998  0.51945918  0.06101818    -0.23600
C54         C  0.77201981  0.52112481  0.03620342    -0.00600
H55         H  0.68593487  0.52142817  0.03658079     0.13200
H56         H  0.73836569  0.51522101  0.09813671     0.13200
O57         O  0.47876283  0.51771271  0.16512920    -0.88000
C58         C  0.44571905  0.55518083  0.29160801     0.88000
Mg59       Mg  0.47593923  0.46362301  0.14386350     1.58100
O60         O  0.53793825  0.55447464  0.27959126    -0.87700
O61         O  0.51810223  0.56060926  0.17372192    -0.75000
C62         C  0.53727385  0.38372170  0.33046756     0.93100
O63         O  0.41684043  0.48868362  0.22944782    -0.74900
O64         O  0.52356716  0.37682380  0.29070585    -0.82400
Mg65       Mg  0.43171703  0.54019247  0.19286740     1.58000
C66         C  0.60393282  0.51418132  0.37641448     0.93000
O67         O  0.44456056  0.59072400  0.15250449    -0.80600
H68         H  0.58149761  0.56818338  0.24478478    -0.06000
C69         C  0.49235497  0.47072978  0.34152052     0.88000
O70         O  0.53510227  0.45772929  0.16274256    -0.75100
O71         O  0.46115748  0.55704193  0.25379825    -0.87900
O72         O  0.58093394  0.53837320  0.37140341    -0.80700
C73         C  0.50378304  0.62568883  0.35327824     0.93100
C74         C  0.45876539  0.62081121  0.15992727     0.93000
Mg75       Mg  0.56447187  0.46508704  0.29994084     1.58000
O76         O  0.55086342  0.41395203  0.33969419    -0.80600
O77         O  0.58053733  0.51689820  0.26429176    -0.74900
O78         O  0.49443811  0.62433477  0.31012622    -0.80700
O79         O  0.39698858  0.52141567  0.13206340    -0.82400
O80         O  0.50209237  0.38119877  0.18156044    -0.80700
C81         C  0.56725587  0.54764794  0.26271719     0.87400
O82         O  0.53591987  0.44870594  0.23819468    -0.87900
O83         O  0.51777927  0.48820126  0.32702244    -0.88000
O84         O  0.47912468  0.44474846  0.31837749    -0.75000
Mg85       Mg  0.50576029  0.59040951  0.24246368     1.58000
O86         O  0.52095055  0.60050685  0.37186186    -0.82400
H87         H  0.51576549  0.52752426  0.11744577    -0.06100
O88         O  0.45944084  0.45140353  0.21286353    -0.87700
H89         H  0.41673488  0.43749048  0.24922494    -0.06000
H90         H  0.58006793  0.44843469  0.20015904    -0.06100
C91         C  0.43041103  0.45807295  0.23064702     0.87400
C92         C  0.50429943  0.53497917  0.15050520     0.88000
C93         C  0.55156557  0.45114171  0.20061371     0.88000
H94         H  0.48068494  0.47808237  0.37449078    -0.06100
O95         O  0.46233376  0.54896169  0.32951207    -0.75200
Mg96       Mg  0.49143322  0.41513285  0.24913312     1.58000
H97         H  0.41725527  0.55816372  0.29228298    -0.06100
C98         C  0.39290078  0.49005053  0.11654308     0.93000
O99         O  0.47663640  0.40610520  0.12009425    -0.82400
C100        C  0.49268159  0.38019497  0.13849471     0.93100
O101        O  0.47386358  0.62808173  0.19896963    -0.82400
Mg102      Mg  0.52146880  0.54253848  0.34850586     1.58200
O103        O  0.41709927  0.46703158  0.12082723    -0.80700
O104        O  0.59762075  0.48298035  0.36158612    -0.82400
O105        O  0.51393485  0.01892972  0.16466691    -0.88000
C106        C  0.56333632  0.03670901  0.29034703     0.88000
Mg107      Mg  0.46232878  0.03802231  0.14729259     1.58100
O108        O  0.53752681  0.94896666  0.27204991    -0.87700
O109        O  0.54424266  0.96947351  0.16792471    -0.75000
C110        C  0.37406795  0.99001293  0.33305005     0.93100
O111        O  0.50639901  0.08420457  0.23536072    -0.74900
O112        O  0.37021746  0.00933709  0.29739413    -0.82400
Mg113      Mg  0.55035302  0.05654298  0.19394030     1.58000
C114        C  0.48246252  0.89361254  0.36472184     0.93000
O115        O  0.59309185  0.03091746  0.14826144    -0.80600
H116        H  0.53855709  0.90503531  0.23273879    -0.06000
C117        C  0.47059489  0.01227378  0.34259744     0.88000
O118        O  0.43961417  0.98251703  0.16056620    -0.75100
O119        O  0.55972052  0.02239721  0.25147368    -0.87900
O120        O  0.51239542  0.90932769  0.36191899    -0.80700
C121        C  0.61723514  0.96209539  0.34276395     0.93100
C122        C  0.61819387  0.00904618  0.15308541     0.93000
Mg123      Mg  0.44472836  0.94626838  0.29325271     1.58000
O124        O  0.39992287  0.96901492  0.33705044    -0.80600
O125        O  0.48927310  0.91900395  0.25319382    -0.74900
O126        O  0.61757254  0.97300240  0.30063293    -0.80700
O127        O  0.54095771  0.09604959  0.13732160    -0.82400
O128        O  0.37787046  0.03017679  0.18781950    -0.80700
C129        C  0.52271624  0.92336466  0.25260613     0.87400
O130        O  0.43510591  0.98076582  0.23660950    -0.87900
O131        O  0.48002918  0.98400594  0.32453710    -0.88000
O132        O  0.44878105  0.03283238  0.32248854    -0.75000
Mg133      Mg  0.57950534  0.97160241  0.23486195     1.58000
O134        O  0.58882275  0.95117914  0.36171072    -0.82400
H135        H  0.51041545  0.98151320  0.11487168    -0.06100
O136        O  0.45760780  0.05419511  0.21839431    -0.87700
H137        H  0.45767990  0.09769860  0.25867666    -0.06000
H138        H  0.41945403  0.94056139  0.19512557    -0.06100
C139        C  0.47298110  0.07957185  0.23777106     0.87400
C140        C  0.52242677  0.98997037  0.14764371     0.88000
C141        C  0.43063947  0.96687102  0.19764354     0.88000
H142        H  0.48181142  0.02010167  0.37610199    -0.06100
O143        O  0.55389964  0.02141900  0.32751760    -0.75200
Mg144      Mg  0.41483802  0.03128104  0.25452715     1.58000
H145        H  0.57406519  0.06320856  0.29266358    -0.06100
C146        C  0.51200290  0.11015521  0.12500536     0.93000
O147        O  0.40616905  0.05453186  0.12820136    -0.82400
C148        C  0.37814878  0.04186331  0.14607310     0.93100
O149        O  0.62338124  0.99277869  0.19101860    -0.82400
Mg150      Mg  0.53205913  0.96588795  0.34253985     1.58200
O151        O  0.48241918  0.09407874  0.12948280    -0.80700
O152        O  0.45439016  0.90784586  0.34939799    -0.82400
O153        O  0.02376791  0.98978567  0.18030263    -0.88000
C154        C  0.04795937  0.95210588  0.31017171     0.88000
Mg155      Mg  0.02972013  0.04355713  0.16015764     1.58100
O156        O  0.95660052  0.95474828  0.28529498    -0.87700
O157        O  0.98323922  0.94765419  0.18286783    -0.75000
C158        C  0.95915016  0.12411016  0.34081857     0.93100
O159        O  0.08311503  0.01774247  0.25303425    -0.74900
O160        O  0.97646724  0.13166974  0.30442418    -0.82400
Mg161      Mg  0.06821970  0.96629778  0.21422971     1.58000
C162        C  0.88758158  0.99844269  0.37447353     0.93000
O163        O  0.05576933  0.91628852  0.17139421    -0.80600
H164        H  0.91544076  0.94164430  0.24371628    -0.06000
C165        C  0.00111546  0.03731121  0.35430610     0.88000
O166        O  0.97001039  0.05165228  0.17089173    -0.75100
O167        O  0.03468516  0.95094094  0.27049780    -0.87900
O168        O  0.91016655  0.97366500  0.37273662    -0.80700
C169        C  0.98359957  0.88359998  0.36195624     0.93100
C170        C  0.04062970  0.88661786  0.17688616     0.93000
Mg171      Mg  0.93152254  0.04476087  0.30230826     1.58000
O172        O  0.94362622  0.09456082  0.34540540    -0.80600
O173        O  0.91661196  0.99327580  0.26327023    -0.74900
O174        O  0.99668490  0.88434280  0.32088695    -0.80700
O175        O  0.10651360  0.98304554  0.15867316    -0.82400
O176        O  0.00306826  0.12664540  0.19695575    -0.80700
C177        C  0.92889034  0.96210105  0.26391877     0.87400
O178        O  0.96490372  0.06014319  0.24624476    -0.87900
O179        O  0.97590635  0.02080251  0.33606179    -0.88000
O180        O  0.01682063  0.06253178  0.33375418    -0.75000
Mg181      Mg  0.99047353  0.91800897  0.25259329     1.58000
O182        O  0.96631362  0.90952472  0.37853474    -0.82400
H183        H  0.98933074  0.98033398  0.12784195    -0.06100
O184        O  0.04272250  0.05585712  0.23116446    -0.87700
H185        H  0.08404195  0.06945135  0.27216443    -0.06000
H186        H  0.92333108  0.06245915  0.20237888    -0.06100
C187        C  0.07063458  0.04881440  0.25224139     0.87400
C188        C  0.99875498  0.97292041  0.16211360     0.88000
C189        C  0.95154656  0.05861392  0.20660674     0.88000
H190        H  0.01058710  0.02956067  0.38841458    -0.06100
O191        O  0.02934203  0.95860600  0.34589293    -0.75200
Mg192      Mg  0.00942908  0.09264546  0.26458591     1.58000
H193        H  0.07615308  0.94816808  0.31447098    -0.06100
C194        C  0.11275985  0.01335839  0.14227057     0.93000
O195        O  0.03220858  0.10111485  0.13834887    -0.82400
C196        C  0.01556791  0.12723223  0.15559634     0.93100
O197        O  0.02441371  0.87920868  0.21421221    -0.82400
Mg198      Mg  0.96957634  0.96706997  0.35634828     1.58200
O199        O  0.08942130  0.03754167  0.14378444    -0.80700
O200        O  0.89357822  0.02871758  0.35789364    -0.82400
O201        O  0.98289990  0.48496194  0.18107061    -0.88000
C202        C  0.93814604  0.46489146  0.30598792     0.88000
Mg203      Mg  0.03586101  0.47031977  0.16437761     1.58100
O204        O  0.95638661  0.55416084  0.28661766    -0.87700
O205        O  0.94757861  0.53091077  0.18273978    -0.75000
C206        C  0.12272803  0.52610443  0.35037066     0.93100
O207        O  0.99741288  0.42141236  0.25087109    -0.74900
O208        O  0.12846558  0.50967308  0.31235715    -0.82400
Mg209      Mg  0.95042891  0.44446279  0.20942233     1.58000
C210        C  0.00676274  0.61643955  0.37920954     0.93000
O211        O  0.90452976  0.46558522  0.16402076    -0.80600
H212        H  0.95180007  0.59659351  0.24624868    -0.06000
C213        C  0.02920820  0.49891288  0.35860744     0.88000
O214        O  0.05425920  0.52755818  0.17756420    -0.75100
O215        O  0.93915141  0.47859767  0.26704386    -0.87900
O216        O  0.97911176  0.59702597  0.37516750    -0.80700
C217        C  0.87965886  0.53623465  0.35954733     0.93100
C218        C  0.87749614  0.48497754  0.16943089     0.93000
Mg219      Mg  0.04942066  0.56568187  0.31047330     1.58000
O220        O  0.09549433  0.54521294  0.35602012    -0.80600
O221        O  0.00206926  0.58793456  0.26917013    -0.74900
O222        O  0.87886597  0.52444937  0.31741724    -0.80700
O223        O  0.96257376  0.40510216  0.15235104    -0.82400
O224        O  0.12205328  0.48227236  0.20592495    -0.80700
C225        C  0.96909801  0.58035395  0.26710866     0.87400
O226        O  0.06125262  0.53102744  0.25342883    -0.87900
O227        O  0.01722071  0.52560549  0.33977843    -0.88000
O228        O  0.05251083  0.47977059  0.33915120    -0.75000
Mg229      Mg  0.91482177  0.52726364  0.25059648     1.58000
O230        O  0.90748008  0.55025011  0.37750442    -0.82400
H231        H  0.98134670  0.52025830  0.12973533    -0.06100
O232        O  0.04311241  0.45563598  0.23538281    -0.87700
H233        H  0.04738806  0.41275728  0.27500393    -0.06000
H234        H  0.07237535  0.57149530  0.21175086    -0.06100
C235        C  0.03029424  0.42918399  0.25411060     0.87400
C236        C  0.97105216  0.51205655  0.16297858     0.88000
C237        C  0.06336684  0.54445893  0.21443161     0.88000
H238        H  0.01910964  0.49127073  0.39219734    -0.06100
O239        O  0.94731405  0.48179548  0.34287012    -0.75200
Mg240      Mg  0.08506804  0.48230968  0.27132207     1.58000
H241        H  0.93001773  0.43758475  0.30860580    -0.06100
C242        C  0.99288237  0.39389801  0.14092948     0.93000
O243        O  0.09261540  0.45746922  0.14594973    -0.82400
C244        C  0.12128012  0.46891004  0.16469413     0.93100
O245        O  0.87161859  0.50075581  0.20798717    -0.82400
Mg246      Mg  0.96442452  0.53931890  0.35728442     1.58200
O247        O  0.02051864  0.41305955  0.14657089    -0.80700
O248        O  0.03690598  0.60540023  0.36677480    -0.82400
C249        C  0.81608229  0.47860726  0.06300629    -0.05400
C250        C  0.80636902  0.51406195  0.05890056     0.00500
C251        C  0.82305972  0.54001156  0.08744652    -0.08100
C252        C  0.84642334  0.52905883  0.12272672    -0.05400
C253        C  0.85449636  0.49329488  0.12896009     0.00500
C254        C  0.84101408  0.46778209  0.09669322    -0.08000
C255        C  0.85134462  0.42928137  0.09901533     0.62400
H256        H  0.80219871  0.45909364  0.04160782     0.13100
H257        H  0.85859416  0.54849331  0.14603632     0.13100
C258        C  0.81631234  0.57901476  0.08039655     0.62600
F259        F  0.83359416  0.40897602  0.06552098    -0.22500
F260        F  0.84336535  0.41610201  0.14247967    -0.19900
F261        F  0.88726316  0.42600553  0.09120989    -0.19500
F262        F  0.78063471  0.58632743  0.08429039    -0.19600
F263        F  0.82603811  0.58709555  0.53720813    -0.19900
F264        F  0.83456289  0.59979806  0.11289639    -0.22600
C265        C  0.81401108  0.49882634  0.44627018    -0.05400
C266        C  0.79197151  0.52776091  0.45482455     0.00500
C267        C  0.79884158  0.55983092  0.43126269    -0.08100
C268        C  0.82602756  0.56084005  0.39776034    -0.05400
C269        C  0.84824743  0.53194557  0.38987558     0.00500
C270        C  0.84278813  0.50071774  0.41552552    -0.08000
C271        C  0.86834458  0.47014178  0.41210949     0.62400
H272        H  0.80874719  0.47473056  0.46472165     0.13100
H273        H  0.83126834  0.58515360  0.37945938     0.13100
C274        C  0.78024138  0.59425159  0.44189153     0.62600
F275        F  0.85866996  0.44253039  0.44060321    -0.22500
F276        F  0.90191103  0.48139830  0.42576520    -0.19900
F277        F  0.86925467  0.45762853  0.36660550    -0.19500
F278        F  0.75849853  0.59256621  0.48021505    -0.19600
F279        F  0.76017691  0.60383943  0.40346942    -0.19900
F280        F  0.80536051  0.62032268  0.45102626    -0.22600
C281        C  0.66523504  0.49470496  0.39470114    -0.05400
C282        C  0.63963896  0.52154853  0.39840690     0.00500
C283        C  0.64946104  0.55353912  0.42197783    -0.08100
C284        C  0.68305286  0.55576851  0.44401980    -0.05400
C285        C  0.70669341  0.52736588  0.44438988     0.00500
C286        C  0.69841851  0.49690057  0.41743785    -0.08000
C287        C  0.72343466  0.46545005  0.91517324     0.62400
H288        H  0.65880905  0.47112110  0.37461279     0.13100
H289        H  0.68980990  0.57863262  0.46545423     0.13100
C290        C  0.62459012  0.58470910  0.42638945     0.62600
F291        F  0.70859021  0.43678614  0.89146332    -0.22500
F292        F  0.73293044  0.45449553  0.95943543    -0.19900
F293        F  0.75388569  0.47762832  0.39005716    -0.19500
F294        F  0.59413686  0.57457129  0.44925013    -0.19600
F295        F  0.61598383  0.59712056  0.38252349    -0.19900
F296        F  0.63982585  0.61243563  0.45162567    -0.22600
C297        C  0.12973324  0.49576594  0.42443724    -0.05400
C298        C  0.14503495  0.51756880  0.39087065     0.00500
C299        C  0.18166642  0.52487199  0.39249535    -0.08100
C300        C  0.20241686  0.50822421  0.42656490    -0.05400
C301        C  0.18762549  0.48417459  0.45810433     0.00500
C302        C  0.15052413  0.47830318  0.45782175    -0.08000
C303        C  0.13271164  0.45368769  0.49179018     0.62400
H304        H  0.10141062  0.49088708  0.42248904     0.13100
H305        H  0.23087204  0.51204659  0.42680302     0.13100
C306        C  0.19854007  0.54978539  0.35804114     0.62600
F307        F  0.13250476  0.46958051  0.53529080    -0.22500
F308        F  0.15038162  0.42195386  0.49405273    -0.19900
F309        F  0.09787181  0.44646348  0.47898969    -0.19500
F310        F  0.18182865  0.58206699  0.36037386    -0.19600
F311        F  0.19520595  0.53621156  0.31314692    -0.19900
F312        F  0.23424815  0.55513761  0.36760406    -0.22600
C313        C  0.19482333  0.43783634  0.08449579    -0.05400
C314        C  0.20763912  0.47021047  0.06772624     0.00500
C315        C  0.19575638  0.50188323  0.08868240    -0.08100
C316        C  0.16948610  0.50023940  0.12342364    -0.05400
C317        C  0.15406007  0.46802609  0.13642007     0.00500
C318        C  0.16763568  0.43615943  0.11778858    -0.08000
C319        C  0.15236713  0.40062574  0.13138035     0.62400
H320        H  0.20427246  0.41385152  0.06815357     0.13100
H321        H  0.15906690  0.52430840  0.13843959     0.13100
C322        C  0.21026613  0.53713408  0.07360786     0.62600
F323        F  0.17255329  0.37301018  0.11462008    -0.22500
F324        F  0.11842525  0.39674518  0.11319492    -0.19900
F325        F  0.15129885  0.39825603  0.17951913    -0.19500
F326        F  0.20291545  0.54208035  0.02679248    -0.19600
F327        F  0.24650398  0.53800974  0.08111646    -0.19900
F328        F  0.19558492  0.56480438  0.09849120    -0.22600
C329        C  0.30443190  0.44525079  0.08631689    -0.05400
C330        C  0.29243347  0.46627648  0.04970643     0.00500
C331        C  0.31416251  0.49437526  0.03380610    -0.08100
C332        C  0.34635804  0.50171481  0.05741638    -0.05400
C333        C  0.35875021  0.48027822  0.09347968     0.00500
C334        C  0.33767120  0.45129238  0.10806005    -0.08000
C335        C  0.34985454  0.42707091  0.14675129     0.62400
H336        H  0.28798906  0.42317909  0.09655273     0.13100
H337        H  0.36297049  0.52350027  0.04661809     0.13100
C338        C  0.30578285  0.51609442  0.48978500     0.62600
F339        F  0.32440794  0.40193365  0.15706864    -0.22500
F340        F  0.35682434  0.44664540  0.18688822    -0.19900
F341        F  0.38013276  0.40951994  0.13336277    -0.19500
F342        F  0.27258881  0.53067560  0.49376049    -0.19600
F343        F  0.30619360  0.49398161  0.45105824    -0.19900
F344        F  0.32970037  0.54327762  0.48233394    -0.22600
C345        C  0.54035327  0.20293737  0.08971749    -0.05400
C346        C  0.51658390  0.20904244  0.05284827     0.00500
C347        C  0.48825741  0.18490095  0.04441987    -0.08100
C348        C  0.48665444  0.15380310  0.07054320    -0.05400
C349        C  0.51272446  0.14585255  0.10404434     0.00500
C350        C  0.53878007  0.17191033  0.11604956    -0.08000
C351        C  0.56568912  0.16705238  0.15531985     0.62400
H352        H  0.56024692  0.22095862  0.59308990     0.13100
H353        H  0.46605527  0.13444775  0.06296789     0.13100
C354        C  0.46046366  0.19137275  0.00683584     0.62600
F355        F  0.58068048  0.19884978  0.66554429    -0.22500
F356        F  0.59114537  0.14314777  0.14165334    -0.19900
F357        F  0.54893925  0.15508789  0.19489323    -0.19500
F358        F  0.47603519  0.19322329  0.96346220    -0.19600
F359        F  0.44352896  0.22266197  0.01660632    -0.19900
F360        F  0.43500735  0.16485609  0.00483582    -0.22600
C361        C  0.51079693  0.30539208  0.40492839    -0.05400
C362        C  0.53704447  0.30641537  0.43982287     0.00500
C363        C  0.56377375  0.33270023  0.43871559    -0.08100
C364        C  0.56282816  0.35762190  0.40261537    -0.05400
C365        C  0.53645755  0.35648669  0.36737117     0.00500
C366        C  0.50907615  0.33050128  0.36957769    -0.08000
C367        C  0.47769338  0.32886004  0.33562550     0.62400
H368        H  0.49245701  0.28332929  0.40402356     0.13100
H369        H  0.58329227  0.37773874  0.40104237     0.13100
C370        C  0.59302598  0.33605744  0.97604904     0.62600
F371        F  0.45213566  0.30482134  0.34938457    -0.22500
F372        F  0.48889279  0.31863378  0.29172053    -0.19900
F373        F  0.46170671  0.36149843  0.33341529    -0.19500
F374        F  0.61587072  0.36405549  0.96816836    -0.19600
F375        F  0.61269919  0.30545728  0.97611463    -0.19900
F376        F  0.57817462  0.34099021  0.01943461    -0.22600
C377        C  0.47763790  0.34179416  0.06958355    -0.05400
C378        C  0.50022831  0.34843466  0.10829573     0.00500
C379        C  0.52998663  0.32605103  0.11482022    -0.08100
C380        C  0.53574876  0.29839542  0.08229314    -0.05400
C381        C  0.51346039  0.29229658  0.04338656     0.00500
C382        C  0.48335902  0.31400774  0.03747049    -0.08000
C383        C  0.45359012  0.30881048  0.49956612     0.62400
H384        H  0.45481841  0.35853199  0.06427235     0.13100
H385        H  0.55904525  0.28218383  0.08547389     0.13100
C386        C  0.55684134  0.33207880  0.15415103     0.62600
F387        F  0.42038248  0.30639091  0.51933866    -0.22500
F388        F  0.45864532  0.27869320  0.47321141    -0.19900
F389        F  0.45427455  0.33767787  0.47052865    -0.19500
F390        F  0.54103759  0.32622232  0.19669898    -0.19600
F391        F  0.56983192  0.36626611  0.15284335    -0.19900
F392        F  0.58541874  0.30954961  0.15066483    -0.22600
C393        C  0.49853241  0.80438044  0.42423774    -0.05400
C394        C  0.46332061  0.79314115  0.42966819     0.00500
C395        C  0.43575518  0.81191407  0.40788173    -0.08100
C396        C  0.44380225  0.84366878  0.38632569    -0.05400
C397        C  0.47855983  0.85762347  0.38514622     0.00500
C398        C  0.50686883  0.83659426  0.40244434    -0.08000
C399        C  0.54536989  0.84829480  0.40028754     0.62400
H400        H  0.51917213  0.78960587  0.44160240     0.13100
H401        H  0.42181063  0.85829287  0.37182089     0.13100
C402        C  0.39691201  0.80134391  0.41031159     0.62600
F403        F  0.56813322  0.82300265  0.41756705    -0.22500
F404        F  0.55032601  0.87871842  0.42679492    -0.19900
F405        F  0.55452465  0.85438276  0.35442756    -0.19500
F406        F  0.37953922  0.82473554  0.43937826    -0.19600
F407        F  0.39201885  0.76760219  0.42679526    -0.19900
F408        F  0.38169855  0.80268478  0.36615894    -0.22600
C409        C  0.44909939  0.67070710  0.04388961    -0.05400
C410        C  0.46678090  0.70219292  0.05581518     0.00500
C411        C  0.48321793  0.70590041  0.10038460    -0.08100
C412        C  0.47906031  0.67894258  0.13261311    -0.05400
C413        C  0.45999069  0.64775725  0.12217904     0.00500
C414        C  0.44550403  0.64302930  0.07608790    -0.08000
C415        C  0.42574960  0.60972806  0.06044858     0.62400
H416        H  0.43634491  0.66883192  0.00985258     0.13100
H417        H  0.49120622  0.68273635  0.16682989     0.13100
C418        C  0.50488299  0.73785438  0.11692705     0.62600
F419        F  0.41352812  0.61176868  0.01475482    -0.22500
F420        F  0.39666488  0.60433402  0.08851472    -0.19900
F421        F  0.44812396  0.58109122  0.06289534    -0.19500
F422        F  0.48769726  0.75414608  0.15363871    -0.19600
F423        F  0.51052592  0.76251505  0.08274649    -0.19900
F424        F  0.53776101  0.72678289  0.13253677    -0.22600
C425        C  0.45392881  0.70205015  0.41228332    -0.05400
C426        C  0.47813065  0.71279933  0.44740506     0.00500
C427        C  0.51149258  0.69595695  0.44977009    -0.08100
C428        C  0.51855089  0.66778292  0.41864256    -0.05400
C429        C  0.49438277  0.65694777  0.38333245     0.00500
C430        C  0.46132662  0.67465819  0.37998701    -0.08000
C431        C  0.43316144  0.66397828  0.34399085     0.62400
H432        H  0.42855931  0.71497715  0.41111141     0.13100
H433        H  0.54381440  0.65448517  0.42142149     0.13100
C434        C  0.54090149  0.70703701  0.48334160     0.62600
F435        F  0.40171844  0.68184045  0.35064441    -0.22500
F436        F  0.42588226  0.62828920  0.34706700    -0.19900
F437        F  0.44491523  0.67151908  0.29963671    -0.19500
F438        F  0.54688242  0.68110932  0.01658326    -0.19600
F439        F  0.53572997  0.73859104  0.00557735    -0.19900
F440        F  0.57193736  0.71183634  0.45887191    -0.20600
C441        C  0.20697298  0.00454370  0.09472962    -0.05400
C442        C  0.20698512  0.03186690  0.06245682     0.00500
C443        C  0.17987117  0.05732014  0.06410775    -0.08100
C444        C  0.15010969  0.05083424  0.09160151    -0.05400
C445        C  0.14748805  0.02067122  0.11949970     0.00500
C446        C  0.17795949  0.99879543  0.12428260    -0.08000
C447        C  0.18035834  0.96919689  0.15942149     0.62400
H448        H  0.22835182  0.98572422  0.09370271     0.13100
H449        H  0.12827280  0.06918147  0.08988016     0.13100
C450        C  0.18001080  0.09007446  0.53488799     0.62600
F451        F  0.21453525  0.95640654  0.16333765    -0.22500
F452        F  0.15853971  0.94143059  0.14570300    -0.19900
F453        F  0.17063103  0.98147911  0.20309343    -0.19500
F454        F  0.15245934  0.08939606  0.50258007    -0.19600
F455        F  0.21160865  0.09471239  0.51163611    -0.19900
F456        F  0.17580049  0.11875574  0.56458819    -0.22600
C457        C  0.31052705  0.97355079  0.43302904    -0.05400
C458        C  0.30130849  0.00829122  0.44481751     0.00500
C459        C  0.31730133  0.03674380  0.42123657    -0.08100
C460        C  0.34112097  0.02927199  0.38527852    -0.05400
C461        C  0.34949954  0.99454285  0.37241151     0.00500
C462        C  0.33492531  0.96603896  0.39753239    -0.08000
C463        C  0.34338078  0.92795186  0.38529515     0.62400
H464        H  0.29673159  0.95218903  0.44990875     0.13100
H465        H  0.35345607  0.05070341  0.36661836     0.13100
C466        C  0.30899392  0.07488528  0.43347416     0.62600
F467        F  0.32278224  0.90448029  0.41005442    -0.22500
F468        F  0.37851442  0.92120873  0.39581154    -0.19900
F469        F  0.33714528  0.92172450  0.33817696    -0.19500
F470        F  0.32097961  0.08233526  0.47825947    -0.19600
F471        F  0.27293055  0.08079595  0.43077481    -0.19900
F472        F  0.32540851  0.09819333  0.40364926    -0.22600
C473        C  0.33672702  0.00295143  0.10177447    -0.05400
C474        C  0.34611517  0.03737488  0.11584885     0.00500
C475        C  0.32612976  0.06601295  0.09887543    -0.08100
C476        C  0.29750926  0.05908925  0.06775483    -0.05400
C477        C  0.28932839  0.02479253  0.05175521     0.00500
C478        C  0.30853034  0.99603700  0.07023103    -0.08000
C479        C  0.30029681  0.95769662  0.05877753     0.62400
H480        H  0.35202562  0.98109356  0.11511963     0.13100
H481        H  0.28207571  0.08059192  0.05392293     0.13100
C482        C  0.33521992  0.10360305  0.11334396     0.62600
F483        F  0.29594249  0.93852856  0.59888661    -0.22500
F484        F  0.32780943  0.94308760  0.53339689    -0.19900
F485        F  0.26906151  0.95265625  0.53189281    -0.19500
F486        F  0.36829891  0.11262659  0.09674883    -0.19600
F487        F  0.33550197  0.10660999  0.16153894    -0.19900
F488        F  0.31087908  0.12731326  0.09584754    -0.22600
C489        C  0.84706125  0.01083745  0.43869175    -0.05400
C490        C  0.85349149  0.99231726  0.39727337     0.00500
C491        C  0.82710182  0.96959699  0.37788201    -0.08100
C492        C  0.79615932  0.96326968  0.40359829    -0.05400
C493        C  0.79109670  0.97964218  0.44711413     0.00500
C494        C  0.81602754  0.00531362  0.46391479    -0.08000
C495        C  0.81073419  0.02785227  0.00808909     0.62400
H496        H  0.86692541  0.02933531  0.45206240     0.13100
H497        H  0.77674931  0.94401139  0.39121980     0.13100
C498        C  0.83180699  0.95232817  0.33034702     0.62600
F499        F  0.81294334  0.06314842  0.99677123    -0.22500
F500        F  0.83761246  0.02037409  0.03963814    -0.19900
F501        F  0.77864379  0.02257903  0.02968350    -0.19500
F502        F  0.85986754  0.92915761  0.33193746    -0.19600
F503        F  0.83861599  0.97792443  0.29756091    -0.19900
F504        F  0.80174843  0.93379656  0.31603091    -0.22600
C505        C  0.64003817  0.96284349  0.10058033    -0.05400
C506        C  0.63956436  0.99886664  0.11247805     0.00500
C507        C  0.65942650  0.02316097  0.08626253    -0.08100
C508        C  0.68261873  0.00987340  0.05229464    -0.05400
C509        C  0.68530239  0.97349360  0.04330151     0.00500
C510        C  0.66218397  0.94972721  0.06553923    -0.08000
C511        C  0.66058710  0.91091717  0.05172623     0.62400
H512        H  0.62318267  0.94491317  0.11961168     0.13100
H513        H  0.70065415  0.02759071  0.03497719     0.13100
C514        C  0.65745535  0.06249986  0.09587344     0.62600
F515        F  0.63483526  0.89289074  0.07612782    -0.22500
F516        F  0.69269724  0.89489383  0.06038516    -0.19900
F517        F  0.65245641  0.90782874  0.00464055    -0.19500
F518        F  0.66573119  0.06956729  0.14227268    -0.19600
F519        F  0.62355343  0.07416179  0.08620606    -0.19900
F520        F  0.68077045  0.08130482  0.06852486    -0.22600
C521        C  0.66457129  0.99696586  0.38407004    -0.05400
C522        C  0.65028154  0.96371379  0.37166651     0.00500
C523        C  0.66610961  0.93311476  0.39004908    -0.08100
C524        C  0.69425106  0.93691006  0.42249594    -0.05400
C525        C  0.70668821  0.97012314  0.43782193     0.00500
C526        C  0.69266648  0.00075674  0.41689241    -0.08000
C527        C  0.70579253  0.03775399  0.42815460     0.62400
H528        H  0.65276410  0.02036344  0.36931516     0.13100
H529        H  0.70568054  0.91384419  0.43846716     0.13100
C530        C  0.65297921  0.89660729  0.37593441     0.62600
F531        F  0.71590086  0.05393134  0.38731402    -0.22500
F532        F  0.73406404  0.03832906  0.95765523    -0.19900
F533        F  0.67771357  0.05599829  0.94991948    -0.19500
F534        F  0.65273101  0.89321468  0.32777423    -0.19600
F535        F  0.61908246  0.89143897  0.39224896    -0.19900
F536        F  0.67432339  0.87045712  0.39401499    -0.22600
C537        C  0.99618715  0.15602073  0.39756726    -0.05400
C538        C  0.96185087  0.14823901  0.38125997     0.00500
C539        C  0.93229569  0.16252046  0.40434148    -0.08100
C540        C  0.93848854  0.18700319  0.44101221    -0.05400
C541        C  0.97307625  0.19603040  0.45604548     0.00500
C542        C  0.00242879  0.17938976  0.43505506    -0.08000
C543        C  0.04029725  0.18623007  0.45169468     0.62400
H544        H  0.01828920  0.14340929  0.38046316     0.13100
H545        H  0.91644127  0.20087391  0.45638647     0.13100
C546        C  0.89477031  0.15315733  0.38880390     0.62600
F547        F  0.06475143  0.17079939  0.42232484    -0.22500
F548        F  0.04479110  0.17185977  0.49532942    -0.19900
F549        F  0.04779899  0.22194552  0.45386874    -0.19500
F550        F  0.88816256  0.11787787  0.39705326    -0.19600
F551        F  0.89056682  0.15947943  0.34158061    -0.19900
F552        F  0.86987721  0.17276084  0.41266720    -0.22600
C553        C  0.02910069  0.20761258  0.07845181    -0.05400
C554        C  0.99446274  0.21320278  0.06184237     0.00500
C555        C  0.96626446  0.19312681  0.08062910    -0.08100
C556        C  0.97423001  0.16582164  0.11195613    -0.05400
C557        C  0.00921566  0.15845841  0.12576408     0.00500
C558        C  0.03714754  0.18002106  0.10936814    -0.08000
C559        C  0.07524552  0.17383250  0.12446466     0.62400
H560        H  0.05013473  0.22387000  0.06469561     0.13100
H561        H  0.95284306  0.14969422  0.12530113     0.13100
C562        C  0.92748654  0.19983000  0.06981644     0.62600
F563        F  0.09811745  0.19874683  0.10634101    -0.22500
F564        F  0.08606691  0.14097067  0.10915719    -0.19900
F565        F  0.07787676  0.17560155  0.17266495    -0.19500
F566        F  0.91341053  0.17067768  0.54326648    -0.19600
F567        F  0.92114745  0.22954517  0.54537944    -0.19900
F568        F  0.90922959  0.20337796  0.11122275    -0.22600
C569        C  0.97540471  0.29920595  0.09836722    -0.05400
C570        C  0.00348545  0.29518507  0.06742040     0.00500
C571        C  0.03125020  0.32040099  0.06756377    -0.08100
C572        C  0.02714105  0.35170956  0.09317275    -0.05400
C573        C  0.99659647  0.35818510  0.11951383     0.00500
C574        C  0.97138396  0.33034284  0.12492116    -0.08000
C575        C  0.93995490  0.33311575  0.15741270     0.62400
H576        H  0.95465290  0.27931012  0.09802642     0.13100
H577        H  0.04758426  0.37184319  0.09082786     0.13100
C578        C  0.06446659  0.31575600  0.53773061     0.62600
F579        F  0.92281139  0.30095450  0.16227026    -0.22500
F580        F  0.91557205  0.35668580  0.13988154    -0.19900
F581        F  0.95139224  0.34414344  0.20134753    -0.19500
F582        F  0.06563843  0.34166626  0.50420996    -0.19600
F583        F  0.06636463  0.28314689  0.51582391    -0.19900
F584        F  0.09384738  0.31950277  0.56683100    -0.22600
C585        C  0.05963687  0.82774177  0.07156770    -0.05400
C586        C  0.02594538  0.81269578  0.06387876     0.00500
C587        C  0.99716313  0.82331059  0.09181227    -0.08100
C588        C  0.00353448  0.84769248  0.12805783    -0.05400
C589        C  0.03744553  0.86177867  0.13705589     0.00500
C590        C  0.06584502  0.85284081  0.10742430    -0.08000
C591        C  0.10259679  0.86860877  0.11465768     0.62400
H592        H  0.08148132  0.81821621  0.05091673     0.13100
H593        H  0.98190410  0.85581570  0.15018549     0.13100
C594        C  0.96002492  0.80819917  0.08435278     0.62600
F595        F  0.12726684  0.85280949  0.08594809    -0.22500
F596        F  0.11361289  0.86431993  0.16049123    -0.19900
F597        F  0.10186981  0.90411723  0.10448877    -0.19500
F598        F  0.95981825  0.77215703  0.09085412    -0.19600
F599        F  0.94855862  0.81528321  0.03958094    -0.19900
F600        F  0.93593884  0.82282871  0.11495516    -0.22600
C601        C  0.02572677  0.84466650  0.40371639    -0.05400
C602        C  0.99042120  0.85268462  0.39241029     0.00500
C603        C  0.96287731  0.83188511  0.41149432    -0.08100
C604        C  0.97170737  0.80485188  0.44304243    -0.05400
C605        C  0.00688309  0.79871003  0.45711363     0.00500
C606        C  0.03453190  0.81775390  0.43525281    -0.08000
C607        C  0.07368560  0.80913190  0.94313225     0.62400
H608        H  0.04682682  0.85996460  0.38808567     0.13100
H609        H  0.95107723  0.78880057  0.45804543     0.13100
C610        C  0.92441622  0.83788099  0.39799543     0.62600
F611        F  0.08874937  0.80189312  0.90027758    -0.22500
F612        F  0.07960196  0.78049480  0.97139746    -0.19900
F613        F  0.09056946  0.83831136  0.96283801    -0.19500
F614        F  0.92062235  0.83632777  0.34989113    -0.19600
F615        F  0.91376019  0.87059032  0.41405198    -0.19900
F616        F  0.90218418  0.81267313  0.41676176    -0.22600
C617        C  0.02470031  0.71241814  0.41531257    -0.05400
C618        C  0.99926581  0.71646178  0.44991942     0.00500
C619        C  0.97228091  0.69074922  0.45449390    -0.08100
C620        C  0.97517230  0.65884756  0.42984347    -0.05400
C621        C  0.00353921  0.65248866  0.39961078     0.00500
C622        C  0.02738898  0.68073867  0.38959227    -0.08000
C623        C  0.05631443  0.67772530  0.35333321     0.62400
H624        H  0.04516861  0.73222563  0.91317441     0.13100
H625        H  0.95580794  0.63819916  0.43603429     0.13100
C626        C  0.94158365  0.69499661  0.48775572     0.62600
F627        F  0.07356683  0.70956926  0.84656767    -0.22500
F628        F  0.04218968  0.66459305  0.31176603    -0.19900
F629        F  0.08277894  0.65573019  0.36919052    -0.19500
F630        F  0.91013696  0.68695514  0.46448543    -0.19600
F631        F  0.93911835  0.72905677  0.50519091    -0.19900
F632        F  0.94569873  0.67216989  0.52467233    -0.22600
N633        N  0.01334722  0.77270269  0.99382668    -0.03100
C634        C  0.00896128  0.73721673  0.99076276    -0.00500
C635        C  0.02026904  0.72217809  0.53201755    -0.23400
C636        C  0.03007371  0.74884045  0.56197905    -0.23600
C637        C  0.02510210  0.77983181  0.53813827    -0.00600
H638        H  0.02046487  0.69426631  0.53941795     0.13200
H639        H  0.03815253  0.74614318  0.59815749     0.13200
N640        N  0.98802813  0.23759047  0.52416245    -0.03100
C641        C  0.99565974  0.27264083  0.52539408    -0.00500
C642        C  0.99041257  0.28806053  0.98265406    -0.23400
C643        C  0.97976833  0.26128609  0.95323479    -0.23600
C644        C  0.97967861  0.23094769  0.97934851    -0.00600
H645        H  0.99295355  0.31563048  0.97386778     0.13200
H646        H  0.97381193  0.26340334  0.91630380     0.13200
N647        N  0.72937742  0.97120290  0.97836777    -0.03100
C648        C  0.76457892  0.96388878  0.97859343    -0.00500
C649        C  0.77545780  0.94910726  0.52022901    -0.23400
C650        C  0.74606847  0.94763228  0.54751352    -0.23600
C651        C  0.71842537  0.96085637  0.52119321    -0.00600
H652        H  0.80232618  0.94334533  0.53119311     0.13200
H653        H  0.74552125  0.94056970  0.58401102     0.13200
N654        N  0.26208374  0.01981572  0.51509484    -0.03100
C655        C  0.22668870  0.02540694  0.51868123    -0.00500
C656        C  0.21042139  0.02224560  0.97634415    -0.23400
C657        C  0.23608141  0.01414105  0.94477586    -0.23600
C658        C  0.26774717  0.01369525  0.96935545    -0.00600
H659        H  0.18231998  0.02437727  0.96900098     0.13200
H660        H  0.23227437  0.00975450  0.90761524     0.13200
N661        N  0.46843086  0.73867168  0.98174227    -0.03100
C662        C  0.45660834  0.77165404  0.97254795    -0.00500
C663        C  0.43975126  0.78778878  0.50962496    -0.23400
C664        C  0.44093733  0.76368185  0.54444189    -0.23600
C665        C  0.45826205  0.73459533  0.52665563    -0.00600
H666        H  0.42951399  0.81430297  0.51229847     0.13200
H667        H  0.43117047  0.76728543  0.57956099     0.13200
N668        N  0.52241585  0.26665493  0.50784245    -0.03100
C669        C  0.52672460  0.23127163  0.51335100    -0.00500
C670        C  0.55000821  0.21739615  0.97969971    -0.23400
C671        C  0.55802118  0.24435766  0.95041220    -0.23600
C672        C  0.54264219  0.27427910  0.96881014    -0.00600
H673        H  0.55768093  0.19011168  0.97553342     0.13200
H674        H  0.57216118  0.24215949  0.91784541     0.13200
N675        N  0.22888436  0.47058252  0.52453619    -0.03100
C676        C  0.26144728  0.45547610  0.52272246    -0.00500
C677        C  0.26385277  0.43426235  0.98300223    -0.23400
C678        C  0.23317253  0.43853479  0.95801957    -0.23600
C679        C  0.21207856  0.46091951  0.98389678    -0.00600
H680        H  0.28762527  0.42157962  0.97063884     0.13200
H681        H  0.22872793  0.43023328  0.92209117     0.13200
N682        N  0.76541358  0.52536713  0.98985815    -0.03100
C683        C  0.72936946  0.52578460  0.98585957    -0.00500
C684        C  0.71402520  0.52121700  0.53000729    -0.23400
C685        C  0.74101848  0.51776383  0.56172365    -0.23600
C686        C  0.77203899  0.51975711  0.53694575    -0.00600
H687        H  0.68596964  0.52006215  0.53739516     0.13200
H688        H  0.73840213  0.51315237  0.59875960     0.13200
O689        O  0.47941808  0.51806687  0.66472149    -0.88000
C690        C  0.44658235  0.55642294  0.79085786     0.88000
Mg691      Mg  0.47597358  0.46383249  0.64367082     1.58100
O692        O  0.53871282  0.55435997  0.77886390    -0.87700
O693        O  0.51915232  0.56062534  0.67295632    -0.75000
C694        C  0.53660563  0.38319057  0.83021867     0.93100
O695        O  0.41739471  0.48985049  0.72926735    -0.74900
O696        O  0.52227394  0.37654808  0.79077258    -0.82400
Mg697      Mg  0.43262780  0.54117254  0.69248130     1.58000
C698        C  0.60400121  0.51374049  0.87571544     0.93000
O699        O  0.44547178  0.59176511  0.65219009    -0.80600
H700        H  0.58236544  0.56726262  0.74374513    -0.06000
C701        C  0.49213569  0.47102335  0.84106298     0.88000
O702        O  0.53504964  0.45721294  0.66249199    -0.75100
O703        O  0.46216277  0.55800743  0.75313625    -0.87900
O704        O  0.58112504  0.53798480  0.87058046    -0.80700
C705        C  0.50554621  0.62613360  0.85244971     0.93100
C706        C  0.46003045  0.62173491  0.65932031     0.93000
Mg707      Mg  0.56422062  0.46455587  0.79957530     1.58000
O708        O  0.55037099  0.41338972  0.83933205    -0.80600
O709        O  0.58070699  0.51608628  0.76361630    -0.74900
O710        O  0.49637457  0.62497641  0.80921845    -0.80700
O711        O  0.39775693  0.52259980  0.63194299    -0.82400
O712        O  0.50120056  0.38095123  0.68152744    -0.80700
C713        C  0.56787646  0.54702001  0.76190327     0.87400
O714        O  0.53565692  0.44815014  0.73793769    -0.87900
O715        O  0.51766880  0.48824948  0.82640025    -0.88000
O716        O  0.47871330  0.44503810  0.81812161    -0.75000
Mg717      Mg  0.50722879  0.59073633  0.74161647     1.58000
O718        O  0.52220957  0.60066120  0.87110195    -0.82400
H719        H  0.51641135  0.52738884  0.61685455    -0.06100
O720        O  0.45934639  0.45184639  0.71263525    -0.87700
H721        H  0.41652328  0.43871599  0.74925105    -0.06000
H722        H  0.57982550  0.44722197  0.69996347    -0.06100
C723        C  0.43047681  0.45902899  0.73051844     0.87400
C724        C  0.50507912  0.53504988  0.64991673     0.88000
C725        C  0.55137098  0.45034897  0.70037673     0.88000
H726        H  0.48055171  0.47858819  0.87400622    -0.06100
O727        O  0.46296092  0.54986600  0.82881071    -0.75200
Mg728      Mg  0.49076557  0.41516561  0.74898365     1.58000
H729        H  0.41817259  0.55987788  0.79138648    -0.06100
C730        C  0.39323574  0.49121650  0.61674619     0.93000
O731        O  0.47603550  0.40615779  0.62005904    -0.82400
C732        C  0.49178290  0.38005315  0.63846124     0.93100
O733        O  0.47603470  0.62875864  0.69782245    -0.82400
Mg734      Mg  0.52193884  0.54267236  0.84775663     1.58200
O735        O  0.41714722  0.46789736  0.62096873    -0.80700
O736        O  0.59753019  0.48249337  0.86114717    -0.82400
O737        O  0.51355150  0.01829462  0.66385162    -0.88000
C738        C  0.56309052  0.03628788  0.78959383     0.88000
Mg739      Mg  0.46185943  0.03716999  0.64651428     1.58100
O740        O  0.53713028  0.94841383  0.77196040    -0.87700
O741        O  0.54376002  0.96878476  0.66763091    -0.75000
C742        C  0.37401421  0.98992734  0.83311958     0.93100
O743        O  0.50597995  0.08381893  0.73424501    -0.74900
O744        O  0.37015969  0.00920932  0.79742025    -0.82400
Mg745      Mg  0.54991968  0.05604927  0.69300806     1.58000
C746        C  0.48210909  0.89341493  0.86541298     0.93000
O747        O  0.59278798  0.03026066  0.64760022    -0.80600
H748        H  0.53816851  0.90433051  0.73295029    -0.06000
C749        C  0.47057786  0.01215167  0.84206571     0.88000
O750        O  0.43928253  0.98171272  0.66037628    -0.75100
O751        O  0.55933593  0.02193193  0.75077505    -0.87900
O752        O  0.51194295  0.90931939  0.86259228    -0.80700
C753        C  0.61696492  0.96153777  0.84248172     0.93100
C754        C  0.61785470  0.00835575  0.65264081     0.93000
Mg755      Mg  0.44442735  0.94583325  0.79328971     1.58000
O756        O  0.39978116  0.96882301  0.83705935    -0.80600
O757        O  0.48888380  0.91838132  0.75330615    -0.74900
O758        O  0.61724285  0.97238805  0.80030888    -0.80700
O759        O  0.54027137  0.09568146  0.63617796    -0.82400
O760        O  0.37741889  0.02961471  0.68754836    -0.80700
C761        C  0.52232586  0.92273335  0.75269732     0.87400
O762        O  0.43484235  0.98025139  0.73646068    -0.87900
O763        O  0.47981963  0.98368340  0.82437768    -0.88000
O764        O  0.44884175  0.03268071  0.82175919    -0.75000
Mg765      Mg  0.57905775  0.97100715  0.73454396     1.58000
O766        O  0.58855244  0.95076302  0.86155804    -0.82400
H767        H  0.51003766  0.98063302  0.61438470    -0.06100
O768        O  0.45725749  0.05365455  0.71749828    -0.87700
H769        H  0.45722119  0.09739060  0.75732216    -0.06000
H770        H  0.41922479  0.93987231  0.69526264    -0.06100
C771        C  0.47256833  0.07917016  0.73662217     0.87400
C772        C  0.52202375  0.98923466  0.64711011     0.88000
C773        C  0.43036386  0.96620863  0.69758445     0.88000
H774        H  0.48193385  0.02019792  0.87540501    -0.06100
O775        O  0.55378858  0.02104010  0.82685733    -0.75200
Mg776      Mg  0.41464054  0.03088673  0.75405315     1.58000
H777        H  0.57386967  0.06277561  0.79179554    -0.06100
C778        C  0.51118332  0.10949365  0.62364224     0.93000
O779        O  0.40564912  0.05349977  0.62752658    -0.82400
C780        C  0.37762421  0.04109768  0.64569143     0.93100
O781        O  0.62288306  0.99210295  0.69062269    -0.82400
Mg782      Mg  0.53181250  0.96561218  0.84240646     1.58200
O783        O  0.48175299  0.09314741  0.62813041    -0.80700
O784        O  0.45400575  0.90728929  0.84956006    -0.82400
O785        O  0.02366349  0.99018902  0.68154609    -0.88000
C786        C  0.04836200  0.95231732  0.81098624     0.88000
Mg787      Mg  0.02979693  0.04390897  0.66121043     1.58100
O788        O  0.95699557  0.95507590  0.78683934    -0.87700
O789        O  0.98300083  0.94818010  0.68423917    -0.75000
C790        C  0.95932263  0.12443662  0.84172964     0.93100
O791        O  0.08309993  0.01793784  0.75409387    -0.74900
O792        O  0.97626003  0.13207592  0.80504136    -0.82400
Mg793      Mg  0.06816405  0.96653003  0.71514926     1.58000
C794        C  0.88813027  0.99866564  0.87601845     0.93000
O795        O  0.05546894  0.91662293  0.67225384    -0.80600
H796        H  0.91573789  0.94188779  0.74549008    -0.06000
C797        C  0.00151465  0.03799662  0.85544339     0.88000
O798        O  0.97010142  0.05221583  0.67201211    -0.75100
O799        O  0.03487734  0.95103770  0.77143633    -0.87900
O800        O  0.91090665  0.97404425  0.87445609    -0.80700
C801        C  0.98436140  0.88389593  0.86317288     0.93100
C802        C  0.04020516  0.88696502  0.67734705     0.93000
Mg803      Mg  0.93184506  0.04506732  0.80361122     1.58000
O804        O  0.94394297  0.09485024  0.84656700    -0.80600
O805        O  0.91697509  0.99356314  0.76476450    -0.74900
O806        O  0.99699813  0.88445460  0.82184314    -0.80700
O807        O  0.10644280  0.98325228  0.65957033    -0.82400
O808        O  0.00302550  0.12694043  0.69740731    -0.80700
C809        C  0.92923108  0.96238834  0.76556039     0.87400
O810        O  0.96512575  0.06047475  0.74739092    -0.87900
O811        O  0.97639436  0.02130314  0.83726715    -0.88000
O812        O  0.01706234  0.06327356  0.83479272    -0.75000
Mg813      Mg  0.99048304  0.91828109  0.75371122     1.58000
O814        O  0.96750065  0.91001082  0.88004465    -0.82400
H815        H  0.98893054  0.98101107  0.62934573    -0.06100
O816        O  0.04296541  0.05634899  0.73216880    -0.87700
H817        H  0.08420847  0.06958783  0.77350723    -0.06000
H818        H  0.92348992  0.06305651  0.70366795    -0.06100
C819        C  0.07076350  0.04908077  0.75339368     0.87400
C820        C  0.99850421  0.97345661  0.66349207     0.88000
C821        C  0.95169299  0.05909911  0.70780029     0.88000
H822        H  0.01102914  0.03038628  0.88959225    -0.06100
O823        O  0.02999495  0.95912448  0.84682974    -0.75200
Mg824      Mg  0.00953138  0.09316445  0.76542288     1.58000
H825        H  0.07656847  0.94830847  0.81504231    -0.06100
C826        C  0.11269538  0.01350897  0.64301903     0.93000
O827        O  0.03246475  0.10135644  0.63911448    -0.82400
C828        C  0.01560628  0.12743329  0.65606279     0.93100
O829        O  0.02382135  0.87938951  0.71449368    -0.82400
Mg830      Mg  0.97032089  0.96755950  0.85774102     1.58200
O831        O  0.08942692  0.03774661  0.64460290    -0.80700
O832        O  0.89397293  0.02894819  0.85934592    -0.82400
O833        O  0.98335132  0.48425180  0.68085694    -0.88000
C834        C  0.93881412  0.46436866  0.80619431     0.88000
Mg835      Mg  0.03639949  0.46998923  0.66396810     1.58100
O836        O  0.95668295  0.55364326  0.78614065    -0.87700
O837        O  0.94773252  0.52997113  0.68246125    -0.75000
C838        C  0.12301628  0.52628102  0.85026642     0.93100
O839        O  0.99848989  0.42106006  0.75089096    -0.74900
O840        O  0.12904967  0.51004326  0.81217600    -0.82400
Mg841      Mg  0.95117959  0.44371055  0.70967022     1.58000
C842        C  0.00681118  0.61631378  0.87836517     0.93000
O843        O  0.90499365  0.46453734  0.66438076    -0.80600
H844        H  0.95191147  0.59589465  0.74547723    -0.06000
C845        C  0.02970293  0.49873568  0.85806413     0.88000
O846        O  0.05440453  0.52736979  0.67708586    -0.75100
O847        O  0.93984233  0.47797025  0.76718683    -0.87900
O848        O  0.97922320  0.59683693  0.87427233    -0.80700
C849        C  0.88005419  0.53593984  0.85931200     0.93100
C850        C  0.87787530  0.48381121  0.66988760     0.93000
Mg851      Mg  0.04965582  0.56557592  0.80992626     1.58000
O852        O  0.09567726  0.54527166  0.85570464    -0.80600
O853        O  0.00222090  0.58755163  0.76847996    -0.74900
O854        O  0.87930745  0.52386218  0.81733648    -0.80700
O855        O  0.96339098  0.40415721  0.65283554    -0.82400
O856        O  0.12273355  0.48267456  0.70534616    -0.80700
C857        C  0.96928074  0.57981284  0.76644819     0.87400
O858        O  0.06166637  0.53096264  0.75292371    -0.87900
O859        O  0.01760879  0.52539946  0.83926727    -0.88000
O860        O  0.05314243  0.47973265  0.83863974    -0.75000
Mg861      Mg  0.91517987  0.52643755  0.75049095     1.58000
O862        O  0.90787327  0.55001861  0.87716930    -0.82400
H863        H  0.98140171  0.51937358  0.62933284    -0.06100
O864        O  0.04399433  0.45543799  0.73495284    -0.87700
H865        H  0.04860889  0.41263801  0.77464664    -0.06000
H866        H  0.07235531  0.57145365  0.71108700    -0.06100
C867        C  0.03135851  0.42896096  0.75383453     0.87400
C868        C  0.97126898  0.51121054  0.66268010     0.88000
C869        C  0.06354525  0.54435885  0.71387551     0.88000
H870        H  0.01959873  0.49100511  0.89161416    -0.06100
O871        O  0.94785279  0.48142305  0.84300510    -0.75200
Mg872      Mg  0.08579567  0.48242791  0.77087856     1.58000
H873        H  0.93076388  0.43704956  0.80893623    -0.06100
C874        C  0.99369505  0.39312080  0.64107504     0.93000
O875        O  0.09333354  0.45777342  0.64536097    -0.82400
C876        C  0.12196035  0.46942613  0.66403821     0.93100
O877        O  0.87199348  0.49951746  0.70847501    -0.82400
Mg878      Mg  0.96479872  0.53905893  0.85688848     1.58200
O879        O  0.02127236  0.41247780  0.64626063    -0.80700
O880        O  0.03699298  0.60527932  0.86612883    -0.82400
C881        C  0.81630321  0.47735497  0.56362701    -0.05400
C882        C  0.80641709  0.51277353  0.55963814     0.00500
C883        C  0.82299672  0.53874442  0.58826288    -0.08100
C884        C  0.84650865  0.52784988  0.62341063    -0.05400
C885        C  0.85477047  0.49211099  0.62951077     0.00500
C886        C  0.84131694  0.46658754  0.59725513    -0.08000
C887        C  0.85177902  0.42812534  0.59956021     0.62400
H888        H  0.80251117  0.45781929  0.54215811     0.13100
H889        H  0.85857274  0.54730170  0.64679176     0.13100
C890        C  0.81581621  0.57770094  0.58155783     0.62600
F891        F  0.83402830  0.40775966  0.56613731    -0.22500
F892        F  0.84392997  0.41493276  0.64306299    -0.19900
F893        F  0.88769489  0.42496596  0.59164447    -0.19500
F894        F  0.78017597  0.58469501  0.58677772    -0.19600
F895        F  0.82755226  0.58825845  0.03642615    -0.19900
F896        F  0.83458140  0.59858556  0.61343170    -0.22600
C897        C  0.81379471  0.49912498  0.94563071    -0.05400
C898        C  0.79194907  0.52823029  0.95398370     0.00500
C899        C  0.79920678  0.56026141  0.93053329    -0.08100
C900        C  0.82654848  0.56104865  0.89724696    -0.05400
C901        C  0.84855877  0.53196269  0.88953914     0.00500
C902        C  0.84277343  0.50081082  0.91520768    -0.08000
C903        C  0.86822918  0.47012814  0.91222187     0.62400
H904        H  0.80826285  0.47508016  0.96406296     0.13100
H905        H  0.83206594  0.58531724  0.87897965     0.13100
C906        C  0.78084230  0.59483635  0.94105630     0.62600
F907        F  0.85847662  0.44279968  0.94113914    -0.22500
F908        F  0.90183652  0.48137760  0.92570976    -0.19900
F909        F  0.86909475  0.45724671  0.86689006    -0.19500
F910        F  0.75877638  0.59327187  0.97906638    -0.19600
F911        F  0.76116148  0.60469525  0.90242131    -0.19900
F912        F  0.80612950  0.62066357  0.95061836    -0.22600
C913        C  0.66494687  0.49393718  0.89519096    -0.05400
C914        C  0.63970249  0.52116637  0.89761776     0.00500
C915        C  0.64990288  0.55364960  0.91972178    -0.08100
C916        C  0.68348571  0.55602255  0.94175188    -0.05400
C917        C  0.70676425  0.52737100  0.94341025     0.00500
C918        C  0.69813114  0.49633079  0.91785134    -0.08000
C919        C  0.72409860  0.46641503  0.41332677     0.62400
H920        H  0.65824180  0.46991894  0.87620646     0.13100
H921        H  0.69050015  0.57931703  0.96219887     0.13100
C922        C  0.62547021  0.58527920  0.92260908     0.62600
F923        F  0.70959911  0.43820463  0.38831711    -0.22500
F924        F  0.73374347  0.45441376  0.45703763    -0.19900
F925        F  0.75335750  0.47567365  0.89142740    -0.19500
F926        F  0.59501253  0.57630433  0.94627525    -0.19600
F927        F  0.61679977  0.59644772  0.87815485    -0.19900
F928        F  0.64120151  0.61355056  0.94618658    -0.22600
C929        C  0.12939160  0.49577902  0.92439071    -0.05400
C930        C  0.14500014  0.51760268  0.89107741     0.00500
C931        C  0.18160520  0.52498301  0.89341458    -0.08100
C932        C  0.20206216  0.50823894  0.92773855    -0.05400
C933        C  0.18699087  0.48410939  0.95895018     0.00500
C934        C  0.14987689  0.47832780  0.95813060    -0.08000
C935        C  0.13178676  0.45379151  0.99194287     0.62400
H936        H  0.10108887  0.49088835  0.92197791     0.13100
H937        H  0.23051989  0.51201382  0.92837792     0.13100
C938        C  0.19874951  0.55011133  0.85947337     0.62600
F939        F  0.13205844  0.46938990  0.03564160    -0.22500
F940        F  0.14894850  0.42175799  0.99366677    -0.19900
F941        F  0.09677550  0.44723771  0.97936968    -0.19500
F942        F  0.18194984  0.58234735  0.86184069    -0.19600
F943        F  0.19584789  0.53677260  0.81441681    -0.19900
F944        F  0.23436043  0.55548828  0.86966115    -0.22600
C945        C  0.19589036  0.43878540  0.58414858    -0.05400
C946        C  0.20827196  0.47115902  0.56692491     0.00500
C947        C  0.19591631  0.50285510  0.58731120    -0.08100
C948        C  0.16968289  0.50114350  0.62213095    -0.05400
C949        C  0.15471036  0.46882076  0.63564260     0.00500
C950        C  0.16866919  0.43700821  0.61735770    -0.08000
C951        C  0.15378506  0.40138379  0.63122631     0.62400
H952        H  0.20571008  0.41481591  0.56817264     0.13100
H953        H  0.15894134  0.52518820  0.63679636     0.13100
C954        C  0.20988823  0.53816343  0.57154262     0.62600
F955        F  0.17396257  0.37388529  0.61410609    -0.22500
F956        F  0.11969374  0.39725971  0.61363475    -0.19900
F957        F  0.15323676  0.39904483  0.67938481    -0.19500
F958        F  0.20253895  0.54249103  0.52461251    -0.19600
F959        F  0.24611170  0.53971339  0.57905924    -0.19900
F960        F  0.19471812  0.56586398  0.59582872    -0.22600
C961        C  0.30419256  0.44744541  0.58740217    -0.05400
C962        C  0.29295851  0.46772328  0.54965471     0.00500
C963        C  0.31500165  0.49545545  0.53342962    -0.08100
C964        C  0.34713103  0.50274707  0.55715507    -0.05400
C965        C  0.35893521  0.48179671  0.59402497     0.00500
C966        C  0.33720110  0.45364168  0.60965022    -0.08000
C967        C  0.34841420  0.43057679  0.65006255     0.62400
H968        H  0.28735051  0.42583152  0.59818185     0.13100
H969        H  0.36416796  0.52403738  0.54580762     0.13100
C970        C  0.30455175  0.51537910  0.99060092     0.62600
F971        F  0.32238364  0.40625814  0.66119628    -0.22500
F972        F  0.35511951  0.45139460  0.68918180    -0.19900
F973        F  0.37859141  0.41211560  0.63857312    -0.19500
F974        F  0.27175454  0.53057539  0.99574033    -0.19600
F975        F  0.30381958  0.49344718  0.95167616    -0.19900
F976        F  0.32884281  0.54211943  0.98254133    -0.22600
C977        C  0.53832891  0.20266118  0.58810302    -0.05400
C978        C  0.51421446  0.20863309  0.55157592     0.00500
C979        C  0.48601957  0.18427413  0.54355195    -0.08100
C980        C  0.48506210  0.15298525  0.56937876    -0.05400
C981        C  0.51147084  0.14520587  0.60253904     0.00500
C982        C  0.53719307  0.17160645  0.61445300    -0.08000
C983        C  0.56398832  0.16721815  0.65394227     0.62400
H984        H  0.56242587  0.22102987  0.09488798     0.13100
H985        H  0.46461010  0.13344653  0.56194924     0.13100
C986        C  0.45760223  0.19083373  0.50681740     0.62600
F987        F  0.58274910  0.19845771  0.16709454    -0.22500
F988        F  0.58973589  0.14348705  0.64073020    -0.19900
F989        F  0.54715114  0.15531675  0.69348651    -0.19500
F990        F  0.47241981  0.19266878  0.46297858    -0.19600
F991        F  0.44092294  0.22217361  0.51711901    -0.19900
F992        F  0.43205056  0.16439604  0.50560161    -0.22600
C993        C  0.51315430  0.30318505  0.90375194    -0.05400
C994        C  0.53853369  0.30582533  0.93965701     0.00500
C995        C  0.56388435  0.33341048  0.93921390    -0.08100
C996        C  0.56229353  0.35812639  0.90293104    -0.05400
C997        C  0.53660572  0.35564518  0.86686215     0.00500
C998        C  0.51077520  0.32802091  0.86808502    -0.08000
C999        C  0.48033537  0.32430410  0.83285350     0.62400
H1000       H  0.49594332  0.28022353  0.90265802     0.13100
H1001       H  0.58167272  0.37930893  0.90206393     0.13100
C1002       C  0.59372246  0.33360787  0.47450965     0.62600
F1003       F  0.45650302  0.29808045  0.84499771    -0.22500
F1004       F  0.49327046  0.31562734  0.78924215    -0.19900
F1005       F  0.46176973  0.35555155  0.83068959    -0.19500
F1006       F  0.61733696  0.36099657  0.46676453    -0.19600
F1007       F  0.61228112  0.30234519  0.47269747    -0.19900
F1008       F  0.57998480  0.33812019  0.51863113    -0.22600
C1009       C  0.47588831  0.34147447  0.57005939    -0.05400
C1010       C  0.49894767  0.34818700  0.60825461     0.00500
C1011       C  0.52878866  0.32580708  0.61418432    -0.08100
C1012       C  0.53426561  0.29821613  0.58145174    -0.05400
C1013       C  0.51154096  0.29208828  0.54301035     0.00500
C1014       C  0.48127953  0.31369933  0.53781361    -0.08000
C1015       C  0.45615843  0.30917196  0.99860110     0.62400
H1016       H  0.45297409  0.35817201  0.56525530     0.13100
H1017       H  0.55764181  0.28206464  0.58410148     0.13100
C1018       C  0.55601492  0.33176884  0.65307193     0.62600
F1019       F  0.42266910  0.30697901  0.01759513    -0.22500
F1020       F  0.46139367  0.27896525  0.97249587    -0.19900
F1021       F  0.45740983  0.33795146  0.96944926    -0.19500
F1022       F  0.54057976  0.32606029  0.69588876    -0.19600
F1023       F  0.56913435  0.36589166  0.65145829    -0.19900
F1024       F  0.58444412  0.30908444  0.64920092    -0.22600
C1025       C  0.49909363  0.80465018  0.92575291    -0.05400
C1026       C  0.46404964  0.79294565  0.93118813     0.00500
C1027       C  0.43621289  0.81143613  0.90953811    -0.08100
C1028       C  0.44384341  0.84332237  0.88796362    -0.05400
C1029       C  0.47847131  0.85758447  0.88645558     0.00500
C1030       C  0.50702837  0.83688314  0.90378381    -0.08000
C1031       C  0.54542246  0.84888375  0.90131852     0.62400
H1032       H  0.51993608  0.79011895  0.94305707     0.13100
H1033       H  0.42167996  0.85769684  0.87345798     0.13100
C1034       C  0.39755543  0.80007473  0.91133855     0.62600
F1035       F  0.56846409  0.82382035  0.91854599    -0.22500
F1036       F  0.55024549  0.87941097  0.92765907    -0.19900
F1037       F  0.55433813  0.85490683  0.85535985    -0.19500
F1038       F  0.37920915  0.82358230  0.93914000    -0.19600
F1039       F  0.39306573  0.76657155  0.92880711    -0.19900
F1040       F  0.38304056  0.80028428  0.86673143    -0.22600
C1041       C  0.44914239  0.67170553  0.54357846    -0.05400
C1042       C  0.46556234  0.70375891  0.55585454     0.00500
C1043       C  0.48154903  0.70795733  0.60064133    -0.08100
C1044       C  0.47787622  0.68090558  0.63285026    -0.05400
C1045       C  0.46032496  0.64894890  0.62188113     0.00500
C1046       C  0.44653748  0.64376600  0.57549781    -0.08000
C1047       C  0.42877261  0.60958713  0.55909565     0.62400
H1048       H  0.43674847  0.66942207  0.50935612     0.13100
H1049       H  0.48941629  0.68512332  0.66734348     0.13100
C1050       C  0.50251923  0.74036137  0.61722819     0.62600
F1051       F  0.41765880  0.61103407  0.51287243    -0.22500
F1052       F  0.39923727  0.60283837  0.58580780    -0.19900
F1053       F  0.45242707  0.58205951  0.56266394    -0.19500
F1054       F  0.48457668  0.75674421  0.65321499    -0.19600
F1055       F  0.50839778  0.76474390  0.58275069    -0.19900
F1056       F  0.53532554  0.72990176  0.63386350    -0.22600
C1057       C  0.45565145  0.70206818  0.91221448    -0.05400
C1058       C  0.47975115  0.71257976  0.94755530     0.00500
C1059       C  0.51323557  0.69593691  0.94961267    -0.08100
C1060       C  0.52042951  0.66802851  0.91809053    -0.05400
C1061       C  0.49629167  0.65736947  0.88263686     0.00500
C1062       C  0.46318873  0.67500105  0.87951940    -0.08000
C1063       C  0.43507404  0.66447223  0.84340136     0.62400
H1064       H  0.43021642  0.71487768  0.91122188     0.13100
H1065       H  0.54571911  0.65476093  0.92072161     0.13100
C1066       C  0.54251639  0.70694919  0.98341974     0.62600
F1067       F  0.40356263  0.68216255  0.85027207    -0.22500
F1068       F  0.42792951  0.62873707  0.84605583    -0.19900
F1069       F  0.44681839  0.67236384  0.79915285    -0.19500
F1070       F  0.54601181  0.68084845  0.51584388    -0.19600
F1071       F  0.53389102  0.73826445  0.50639260    -0.19900
F1072       F  0.57389286  0.71099020  0.95945214    -0.20600
C1073       C  0.20655743  0.00414395  0.59465237    -0.05400
C1074       C  0.20634183  0.03106117  0.56178127     0.00500
C1075       C  0.17924539  0.05654667  0.56320518    -0.08100
C1076       C  0.14968116  0.05041069  0.59119966    -0.05400
C1077       C  0.14728594  0.02063128  0.61982492     0.00500
C1078       C  0.17782997  0.99889905  0.62484226    -0.08000
C1079       C  0.18074606  0.97026205  0.66128917     0.62400
H1080       H  0.22796717  0.98534938  0.59387670     0.13100
H1081       H  0.12783147  0.06873781  0.58936446     0.13100
C1082       C  0.18070550  0.09098802  0.03610453     0.62600
F1083       F  0.21501979  0.95770609  0.66511236    -0.22500
F1084       F  0.15890360  0.94207080  0.64938471    -0.19900
F1085       F  0.17147500  0.98370907  0.70455486    -0.19500
F1086       F  0.15402515  0.08988507  0.00256018    -0.19600
F1087       F  0.21284457  0.09627872  0.01438997    -0.19900
F1088       F  0.17516144  0.11948244  0.06570408    -0.22600
C1089       C  0.31084043  0.97387073  0.93365526    -0.05400
C1090       C  0.30158044  0.00865348  0.94514545     0.00500
C1091       C  0.31750702  0.03700440  0.92130028    -0.08100
C1092       C  0.34108860  0.02938646  0.88512380    -0.05400
C1093       C  0.34954488  0.99460917  0.87257521     0.00500
C1094       C  0.33525373  0.96622339  0.89821918    -0.08000
C1095       C  0.34415132  0.92810275  0.88677435     0.62400
H1096       H  0.29716543  0.95257338  0.95082511     0.13100
H1097       H  0.35331249  0.05074731  0.86620483     0.13100
C1098       C  0.30961846  0.07520113  0.93377558     0.62600
F1099       F  0.32383884  0.90469930  0.91203610    -0.22500
F1100       F  0.37936606  0.92190130  0.89746630    -0.19900
F1101       F  0.33800411  0.92123034  0.83978434    -0.19500
F1102       F  0.32247150  0.08256274  0.97818874    -0.19600
F1103       F  0.27357385  0.08137899  0.93224893    -0.19900
F1104       F  0.32561463  0.09839525  0.90341776    -0.22600
C1105       C  0.33608895  0.00229241  0.60145818    -0.05400
C1106       C  0.34548177  0.03667949  0.61565929     0.00500
C1107       C  0.32551525  0.06536371  0.59877415    -0.08100
C1108       C  0.29683062  0.05850505  0.56771187    -0.05400
C1109       C  0.28871085  0.02424577  0.55148932     0.00500
C1110       C  0.30792687  0.99545703  0.56983959    -0.08000
C1111       C  0.29982630  0.95715726  0.55798905     0.62400
H1112       H  0.35141294  0.98040772  0.61467376     0.13100
H1113       H  0.28137439  0.08003675  0.55400046     0.13100
C1114       C  0.33480799  0.10293914  0.61310789     0.62600
F1115       F  0.29602357  0.93941975  0.09988576    -0.22500
F1116       F  0.32836504  0.94326965  0.03471244    -0.19900
F1117       F  0.26969246  0.95316168  0.03236599    -0.19500
F1118       F  0.36787626  0.11178330  0.59630910    -0.19600
F1119       F  0.33525926  0.10602867  0.66129606    -0.19900
F1120       F  0.31052896  0.12673243  0.59566713    -0.22600
C1121       C  0.84662722  0.01133094  0.93917608    -0.05400
C1122       C  0.85388867  0.99228350  0.89842488     0.00500
C1123       C  0.82808002  0.96885093  0.87913994    -0.08100
C1124       C  0.79691287  0.96243173  0.90437163    -0.05400
C1125       C  0.79102488  0.97936791  0.94731797     0.00500
C1126       C  0.81542238  0.00559855  0.96400819    -0.08000
C1127       C  0.81207353  0.02707311  0.50856046     0.62400
H1128       H  0.86601587  0.03037100  0.95241891     0.13100
H1129       H  0.77793376  0.94272370  0.89207544     0.13100
C1130       C  0.83357067  0.95101446  0.83212531     0.62600
F1131       F  0.81559991  0.06245711  0.49824470    -0.22500
F1132       F  0.83857187  0.01813202  0.53994676    -0.19900
F1133       F  0.77973062  0.02264533  0.52985628    -0.19500
F1134       F  0.86193853  0.92827187  0.83481623    -0.19600
F1135       F  0.84037894  0.97625364  0.79885908    -0.19900
F1136       F  0.80393674  0.93187471  0.81766472    -0.22600
C1137       C  0.64057598  0.96203226  0.60098770    -0.05400
C1138       C  0.63946952  0.99815333  0.61226502     0.00500
C1139       C  0.65898961  0.02251413  0.58570949    -0.08100
C1140       C  0.68234189  0.00929311  0.55190805    -0.05400
C1141       C  0.68565564  0.97289789  0.54355724     0.00500
C1142       C  0.66298771  0.94894659  0.56622990    -0.08000
C1143       C  0.66207824  0.90997864  0.55310774     0.62400
H1144       H  0.62399934  0.94400941  0.62028022     0.13100
H1145       H  0.70006251  0.02713042  0.53426350     0.13100
C1146       C  0.65663249  0.06188395  0.59490424     0.62600
F1147       F  0.63670537  0.89174521  0.57791143    -0.22500
F1148       F  0.69447570  0.89458905  0.56195634    -0.19900
F1149       F  0.65392736  0.90627352  0.50609314    -0.19500
F1150       F  0.66512903  0.06930164  0.64114788    -0.19600
F1151       F  0.62256104  0.07315529  0.58546079    -0.19900
F1152       F  0.67957176  0.08076610  0.56710835    -0.22600
C1153       C  0.66394878  0.99660808  0.88407126    -0.05400
C1154       C  0.65003016  0.96327017  0.87137400     0.00500
C1155       C  0.66612848  0.93275529  0.88964969    -0.08100
C1156       C  0.69431578  0.93672361  0.92203632    -0.05400
C1157       C  0.70648366  0.97001192  0.93748568     0.00500
C1158       C  0.69205715  0.00055764  0.91683340    -0.08000
C1159       C  0.70469137  0.03763782  0.92851857     0.62400
H1160       H  0.65184672  0.01994562  0.86956257     0.13100
H1161       H  0.70596955  0.91372789  0.93790499     0.13100
C1162       C  0.65326815  0.89616204  0.87546482     0.62600
F1163       F  0.71361239  0.05460049  0.88775328    -0.22500
F1164       F  0.73453185  0.03834158  0.45837597    -0.19900
F1165       F  0.67874765  0.05694864  0.44808637    -0.19500
F1166       F  0.65376506  0.89260257  0.82734365    -0.19600
F1167       F  0.61913029  0.89095987  0.89089296    -0.19900
F1168       F  0.67436305  0.87011380  0.89430547    -0.22600
C1169       C  0.99700987  0.15614674  0.89782547    -0.05400
C1170       C  0.96247963  0.14843250  0.88221055     0.00500
C1171       C  0.93320742  0.16266647  0.90596495    -0.08100
C1172       C  0.93985205  0.18722044  0.94238643    -0.05400
C1173       C  0.97461045  0.19629924  0.95655096     0.00500
C1174       C  0.00370081  0.17957966  0.93509104    -0.08000
C1175       C  0.04174293  0.18666192  0.95080806     0.62400
H1176       H  0.01889867  0.14355850  0.88022218     0.13100
H1177       H  0.91800298  0.20112272  0.95818019     0.13100
C1178       C  0.89548827  0.15311603  0.89153004     0.62600
F1179       F  0.06585818  0.17016426  0.92195396    -0.22500
F1180       F  0.04658331  0.17369048  0.99516133    -0.19900
F1181       F  0.04937402  0.22236896  0.95090754    -0.19500
F1182       F  0.88908777  0.11792626  0.90061315    -0.19600
F1183       F  0.89055642  0.15892794  0.84429879    -0.19900
F1184       F  0.87092313  0.17294725  0.91567284    -0.22600
C1185       C  0.02837620  0.20737731  0.57780758    -0.05400
C1186       C  0.99365078  0.21269329  0.56137982     0.00500
C1187       C  0.96565908  0.19243948  0.58037448    -0.08100
C1188       C  0.97391802  0.16535035  0.61191994    -0.05400
C1189       C  0.00898481  0.15839406  0.62579994     0.00500
C1190       C  0.03672587  0.17998225  0.60888745    -0.08000
C1191       C  0.07496329  0.17402212  0.62350852     0.62400
H1192       H  0.04924606  0.22370298  0.56377038     0.13100
H1193       H  0.95269752  0.14909557  0.62544411     0.13100
C1194       C  0.92681612  0.19872175  0.56945735     0.62600
F1195       F  0.09758405  0.19891378  0.60480489    -0.22500
F1196       F  0.08579144  0.14112661  0.60834265    -0.19900
F1197       F  0.07798922  0.17607375  0.67165420    -0.19500
F1198       F  0.91345746  0.17144510  0.04486461    -0.19600
F1199       F  0.92214518  0.23015919  0.04455766    -0.19900
F1200       F  0.90822266  0.20103642  0.61074496    -0.22600
C1201       C  0.97618218  0.29826797  0.59912226    -0.05400
C1202       C  0.00353972  0.29454716  0.56701654     0.00500
C1203       C  0.03118116  0.31990532  0.56639456    -0.08100
C1204       C  0.02741364  0.35114296  0.59228601    -0.05400
C1205       C  0.99738677  0.35737610  0.61970021     0.00500
C1206       C  0.97256556  0.32930120  0.62602122    -0.08000
C1207       C  0.94192976  0.33171670  0.65983346     0.62400
H1208       H  0.95555790  0.27824823  0.59946530     0.13100
H1209       H  0.04765344  0.37142349  0.58930761     0.13100
C1210       C  0.06504476  0.31601754  0.03997674     0.62600
F1211       F  0.92542534  0.29931678  0.66555119    -0.22500
F1212       F  0.91678450  0.35487626  0.64323498    -0.19900
F1213       F  0.95426114  0.34303374  0.70323252    -0.19500
F1214       F  0.06704663  0.34193814  0.00653971    -0.19600
F1215       F  0.06712085  0.28341291  0.01807806    -0.19900
F1216       F  0.09390230  0.31952669  0.07001447    -0.22600
C1217       C  0.05996977  0.82897136  0.57143535    -0.05400
C1218       C  0.02640998  0.81376834  0.56324702     0.00500
C1219       C  0.99743566  0.82395642  0.59113006    -0.08100
C1220       C  0.00346473  0.84817286  0.62769587    -0.05400
C1221       C  0.03727608  0.86232408  0.63724661     0.00500
C1222       C  0.06590524  0.85366455  0.60785568    -0.08000
C1223       C  0.10270041  0.86905859  0.61619885     0.62400
H1224       H  0.08197591  0.81970664  0.55086607     0.13100
H1225       H  0.98167299  0.85602703  0.64971345     0.13100
C1226       C  0.96050037  0.80840554  0.58341541     0.62600
F1227       F  0.12756966  0.85352454  0.58754704    -0.22500
F1228       F  0.11314600  0.86392282  0.66209000    -0.19900
F1229       F  0.10241642  0.90473967  0.60704429    -0.19500
F1230       F  0.96078621  0.77231646  0.58946998    -0.19600
F1231       F  0.94896776  0.81565378  0.53871799    -0.19900
F1232       F  0.93619332  0.82246660  0.61416868    -0.22600
C1233       C  0.02619082  0.84423154  0.90448399    -0.05400
C1234       C  0.99096184  0.85282434  0.89345849     0.00500
C1235       C  0.96318523  0.83242564  0.91269662    -0.08100
C1236       C  0.97171718  0.80507961  0.94387765    -0.05400
C1237       C  0.00682025  0.79832253  0.95766327     0.00500
C1238       C  0.03469604  0.81711779  0.93589932    -0.08000
C1239       C  0.07361406  0.81019632  0.44237974     0.62400
H1240       H  0.04746126  0.85927730  0.88881730     0.13100
H1241       H  0.95089594  0.78923517  0.95884831     0.13100
C1242       C  0.92476113  0.83922275  0.89976650     0.62600
F1243       F  0.08869574  0.80324539  0.39945235    -0.22500
F1244       F  0.07989425  0.78154253  0.47047263    -0.19900
F1245       F  0.09018440  0.83951380  0.46217691    -0.19500
F1246       F  0.92055692  0.83781737  0.85171085    -0.19600
F1247       F  0.91490354  0.87212192  0.91607357    -0.19900
F1248       F  0.90217234  0.81445612  0.91880033    -0.22600
C1249       C  0.02473027  0.71211480  0.91543832    -0.05400
C1250       C  0.99878369  0.71615203  0.94939001     0.00500
C1251       C  0.97156675  0.69057589  0.95303769    -0.08100
C1252       C  0.97456535  0.65884151  0.92804998    -0.05400
C1253       C  0.00344778  0.65237694  0.89870350     0.00500
C1254       C  0.02773593  0.68047349  0.88970128    -0.08000
C1255       C  0.05756290  0.67726635  0.85474682     0.62400
H1256       H  0.04496105  0.73264204  0.41230308     0.13100
H1257       H  0.95493075  0.63831435  0.93350703     0.13100
C1258       C  0.94057841  0.69462669  0.98588624     0.62600
F1259       F  0.07167319  0.71018299  0.34423018    -0.22500
F1260       F  0.04438069  0.66445046  0.81249202    -0.19900
F1261       F  0.08334068  0.65490834  0.87164855    -0.19500
F1262       F  0.90928799  0.68709825  0.96196481    -0.19600
F1263       F  0.93819041  0.72847083  0.00409202    -0.19900
F1264       F  0.94419587  0.67127362  0.02230871    -0.22600
loop_ 
_geom_bond_atom_site_label_1 
_geom_bond_atom_site_label_2 
_geom_bond_distance 
_geom_bond_site_symmetry_2 
_ccdc_geom_bond_type 
N1            C2   1.356       .  A
N1          C637   1.360       .  A
N1          C605   1.450       .  S
C2          C618   1.466   1_455  S
C2          C635   1.381       .  A
C3            C4   1.364       .  A
C3          C634   1.381   1_554  A
C3            H6   1.082       .  S
C4            C5   1.380       .  A
C4            H7   1.082       .  S
C5          N633   1.360   1_554  A
C5          C586   1.466       .  S
N8            C9   1.357       .  A
N8          C644   1.360   1_554  A
N8          C554   1.447       .  S
C9          C570   1.468   1_655  S
C9          C642   1.381   1_554  A
C10          C11   1.366       .  A
C10         C641   1.381       .  A
C10          H13   1.082       .  S
C11          C12   1.381       .  A
C11          H14   1.082       .  S
C12         N640   1.361       .  A
C12         C541   1.472       .  S
N15          C16   1.358       .  A
N15         C651   1.357       .  A
N15         C525   1.446       .  S
C16         C493   1.471       .  S
C16         C649   1.382       .  A
C17          C18   1.365       .  A
C17         C648   1.381   1_554  A
C17          H20   1.082       .  S
C18          C19   1.381       .  A
C18          H21   1.082       .  S
C19         N647   1.357   1_554  A
C19         C509   1.473       .  S
N22          C23   1.359       .  A
N22         C658   1.360   1_554  A
N22         C477   1.446       .  S
C23         C442   1.476       .  S
C23         C656   1.383   1_554  A
C24          C25   1.367       .  A
C24         C655   1.383       .  A
C24          H27   1.082       .  S
C25          C26   1.380       .  A
C25          H28   1.082       .  S
C26         N654   1.360       .  A
C26         C458   1.473       .  S
N29          C30   1.359       .  A
N29         C665   1.363       .  A
N29         C426   1.453       .  S
C30         C394   1.470       .  S
C30         C663   1.381       .  A
C31          C32   1.362       .  A
C31         C662   1.381   1_554  A
C31          H34   1.082       .  S
C32          C33   1.382       .  A
C32          H35   1.082       .  S
C33         N661   1.363   1_554  A
C33         C410   1.472       .  S
N36          C37   1.363       .  A
N36         C672   1.364   1_554  A
N36         C381   1.450       .  S
C37         C346   1.478       .  S
C37         C670   1.380   1_554  A
C38          C39   1.365       .  A
C38         C669   1.380       .  A
C38          H41   1.082       .  S
C39          C40   1.380       .  A
C39          H42   1.082       .  S
C40         N668   1.365       .  A
C40         C362   1.476       .  S
N43          C44   1.362       .  A
N43         C679   1.362   1_554  A
N43         C314   1.450       .  S
C44         C330   1.479       .  S
C44         C677   1.378   1_554  A
C45          C46   1.365       .  A
C45         C676   1.378       .  A
C45          H48   1.082       .  S
C46          C47   1.383       .  A
C46          H49   1.083       .  S
C47         N675   1.361       .  A
C47         C301   1.480       .  S
N50          C51   1.364       .  A
N50         C686   1.360       .  A
N50         C266   1.448       .  S
C51         C285   1.479       .  S
C51         C684   1.383       .  A
C52          C53   1.365       .  A
C52         C683   1.383   1_554  A
C52          H55   1.083       .  S
C53          C54   1.378       .  A
C53          H56   1.082       .  S
C54         N682   1.359   1_554  A
C54         C250   1.471       .  S
O57         Mg59   2.134       .  S
O57         Mg65   2.133       .  S
O57          C92   1.240       .  S
C58          H97   1.081       .  S
C58          O71   1.238       .  S
C58          O95   1.272       .  A
Mg59         O88   2.134       .  S
Mg59        O103   2.313       .  S
Mg59         O99   2.277       .  S
Mg59         O70   2.304       .  S
O60        Mg102   2.129       .  S
O60         Mg85   2.120       .  S
O60          C81   1.240       .  S
O61          C92   1.275       .  A
O61         Mg85   2.311       .  S
C62         C365   1.487       .  S
C62          O64   1.268       .  A
C62          O76   1.275       .  A
O63          C91   1.274       .  A
O63         Mg65   2.297       .  S
O64         Mg96   2.244       .  S
Mg65         O71   2.144       .  S
Mg65         O79   2.270       .  S
Mg65         O67   2.302       .  S
C66         C282   1.503       .  S
C66         O104   1.272       .  A
C66          O72   1.276       .  A
O67          C74   1.271       .  A
H68          C81   1.081       .  S
C69          H94   1.081       .  S
C69          O83   1.240       .  S
C69          O84   1.275       .  A
O70          C93   1.272       .  A
O71         Mg85   2.128       .  S
O72        Mg102   2.337       .  S
C73         C429   1.503       .  S
C73          O86   1.277       .  A
C73          O78   1.281       .  A
C74         C413   1.498       .  S
C74         O101   1.274       .  A
Mg75         O82   2.142       .  S
Mg75         O83   2.125       .  S
Mg75         O76   2.318       .  S
Mg75         O77   2.306       .  S
Mg75        O104   2.245       .  S
O77          C81   1.274       .  A
O78         Mg85   2.357       .  S
O79          C98   1.272       .  A
O80         C100   1.279       .  A
O80         Mg96   2.350       .  S
O82         Mg96   2.127       .  S
O82          C93   1.238       .  S
O83        Mg102   2.146       .  S
O84         Mg96   2.320       .  S
Mg85        O101   2.254       .  S
O86        Mg102   2.290       .  S
H87          C92   1.081       .  S
O88         Mg96   2.112       .  S
O88          C91   1.240       .  S
H89          C91   1.081       .  S
H90          C93   1.081       .  S
O95        Mg102   2.306       .  S
C98         C333   1.483       .  S
C98         O103   1.275       .  A
O99         C100   1.275       .  A
C100        C378   1.505       .  S
O105       Mg107   2.138       .  S
O105       Mg113   2.129       .  S
O105        C140   1.242   1_545  S
C106        H145   1.081       .  S
C106        O119   1.238       .  S
C106        O143   1.272       .  A
Mg107       O136   2.128       .  S
Mg107       O151   2.316       .  S
Mg107       O147   2.277       .  S
Mg107       O118   2.304   1_545  S
O108       Mg150   2.123       .  S
O108       Mg133   2.102       .  S
O108        C129   1.239       .  S
O109        C140   1.277       .  A
O109       Mg133   2.320       .  S
C110        C461   1.477       .  S
C110        O112   1.272   1_565  A
C110        O124   1.270       .  A
O111        C139   1.274       .  A
O111       Mg113   2.303       .  S
O112       Mg144   2.255       .  S
Mg113       O119   2.136       .  S
Mg113       O127   2.249       .  S
Mg113       O115   2.302       .  S
C114        C397   1.499       .  S
C114        O152   1.269       .  A
C114        O120   1.276       .  A
O115        C122   1.272       .  A
H116        C129   1.081       .  S
C117        H142   1.081       .  S
C117        O131   1.241   1_545  S
C117        O132   1.276       .  A
O118        C141   1.271       .  A
O119       Mg133   2.122   1_545  S
O120       Mg150   2.340       .  S
C121        C522   1.488       .  S
C121        O134   1.276       .  A
C121        O126   1.280       .  A
C122        C506   1.472   1_545  S
C122        O149   1.270   1_545  A
Mg123       O130   2.126       .  S
Mg123       O131   2.129       .  S
Mg123       O124   2.285       .  S
Mg123       O125   2.292       .  S
Mg123       O152   2.213       .  S
O125        C129   1.272       .  A
O126       Mg133   2.354       .  S
O127        C146   1.269       .  A
O128        C148   1.280       .  A
O128       Mg144   2.351       .  S
O130       Mg144   2.128   1_565  S
O130        C141   1.237       .  S
O131       Mg150   2.145       .  S
O132       Mg144   2.316       .  S
Mg133       O149   2.239       .  S
O134       Mg150   2.280       .  S
H135        C140   1.081       .  S
O136       Mg144   2.114       .  S
O136        C139   1.241       .  S
H137        C139   1.081       .  S
H138        C141   1.081       .  S
O143       Mg150   2.303   1_545  S
C146        C349   1.488       .  S
C146        O151   1.276       .  A
O147        C148   1.273       .  A
C148        C474   1.485       .  S
O153       Mg155   2.137   1_565  S
O153       Mg161   2.135       .  S
O153        C188   1.241   1_455  S
C154        H193   1.081       .  S
C154        O167   1.236       .  S
C154        O191   1.270       .  A
Mg155       O184   2.130       .  S
Mg155       O199   2.319       .  S
Mg155       O195   2.280       .  S
Mg155       O166   2.300   1_455  S
O156       Mg198   2.132       .  S
O156       Mg181   2.116       .  S
O156        C177   1.241       .  S
O157        C188   1.276       .  A
O157       Mg181   2.318       .  S
C158        C538   1.469       .  S
C158        O160   1.271       .  A
C158        O172   1.269       .  A
O159        C187   1.273       .  A
O159       Mg161   2.295   1_545  S
O160       Mg192   2.250   1_655  S
Mg161       O167   2.144       .  S
Mg161       O175   2.255       .  S
Mg161       O163   2.288       .  S
C162        C490   1.467       .  S
C162        O200   1.268   1_565  A
C162        O168   1.275       .  A
O163        C170   1.270       .  A
H164        C177   1.081       .  S
C165        H190   1.081       .  S
C165        O179   1.241   1_455  S
C165        O180   1.275       .  A
O166        C189   1.270       .  A
O167       Mg181   2.129   1_455  S
O168       Mg198   2.311       .  S
C169        C602   1.492       .  S
C169        O182   1.274       .  A
C169        O174   1.281       .  A
C170        C589   1.473       .  S
C170        O197   1.271       .  A
Mg171       O178   2.136       .  S
Mg171       O179   2.138       .  S
Mg171       O172   2.283       .  S
Mg171       O173   2.300   1_545  S
Mg171       O200   2.240       .  S
O173        C177   1.274       .  A
O174       Mg181   2.359       .  S
O175        C194   1.269   1_565  A
O176        C196   1.280       .  A
O176       Mg192   2.351       .  S
O178       Mg192   2.132   1_655  S
O178        C189   1.237       .  S
O179       Mg198   2.139   1_545  S
O180       Mg192   2.314       .  S
Mg181       O197   2.244   1_655  S
O182       Mg198   2.284       .  S
H183        C188   1.081       .  S
O184       Mg192   2.113       .  S
O184        C187   1.240       .  S
H185        C187   1.081       .  S
H186        C189   1.081       .  S
O191       Mg198   2.303   1_455  S
C194        C445   1.496       .  S
C194        O199   1.278       .  A
O195        C196   1.275       .  A
C196        C557   1.488       .  S
O201       Mg203   2.136   1_655  S
O201       Mg209   2.132       .  S
O201        C236   1.241       .  S
C202        H241   1.081       .  S
C202        O215   1.237       .  S
C202        O239   1.271       .  A
Mg203       O232   2.130       .  S
Mg203       O247   2.292       .  S
Mg203       O243   2.267       .  S
Mg203       O214   2.299       .  S
O204       Mg246   2.126       .  S
O204       Mg229   2.114       .  S
O204        C225   1.242       .  S
O205        C236   1.276       .  A
O205       Mg229   2.320       .  S
C206        C298   1.466       .  S
C206        O208   1.269       .  A
C206        O220   1.273       .  A
O207        C235   1.275   1_655  A
O207       Mg209   2.306       .  S
O208       Mg240   2.243       .  S
Mg209       O215   2.133       .  S
Mg209       O223   2.253       .  S
Mg209       O211   2.308       .  S
C210        C621   1.486       .  S
C210        O248   1.269       .  A
C210        O216   1.275   1_455  A
O211        C218   1.272       .  A
H212        C225   1.081       .  S
C213        H238   1.081       .  S
C213        O227   1.239       .  S
C213        O228   1.274       .  A
O214        C237   1.270       .  A
O215       Mg229   2.124       .  S
O216       Mg246   2.303       .  S
C217        C269   1.487       .  S
C217        O230   1.273       .  A
C217        O222   1.281       .  A
C218        C253   1.478       .  S
C218        O245   1.272       .  A
Mg219       O226   2.137       .  S
Mg219       O227   2.125       .  S
Mg219       O220   2.306       .  S
Mg219       O221   2.303       .  S
Mg219       O248   2.249       .  S
O221        C225   1.275   1_455  A
O222       Mg229   2.362       .  S
O223        C242   1.268       .  A
O224        C244   1.279       .  A
O224       Mg240   2.349       .  S
O226       Mg240   2.127       .  S
O226        C237   1.236       .  S
O227       Mg246   2.127   1_455  S
O228       Mg240   2.313       .  S
Mg229       O245   2.247       .  S
O230       Mg246   2.272       .  S
H231        C236   1.081       .  S
O232       Mg240   2.120       .  S
O232        C235   1.241       .  S
H233        C235   1.081       .  S
H234        C237   1.082       .  S
O239       Mg246   2.301       .  S
C242        C573   1.488       .  S
C242        O247   1.273   1_655  A
O243        C244   1.272       .  A
C244        C317   1.487       .  S
C249        C250   1.403       .  A
C249        C254   1.407       .  A
C249        H256   1.082       .  S
C250        C251   1.411       .  A
C251        C252   1.402       .  A
C251        C258   1.519       .  S
C252        C253   1.406       .  A
C252        H257   1.083       .  S
C253        C254   1.416       .  A
C254        C255   1.517       .  S
C255        F259   1.385       .  S
C255        F260   1.383       .  S
C255        F261   1.383       .  S
C258        F262   1.382       .  S
C258        F264   1.385       .  S
C258        F895   1.382       .  S
F263        C890   1.382       .  S
C265        C266   1.403       .  A
C265        C270   1.408       .  A
C265        H272   1.080       .  S
C266        C267   1.422       .  A
C267        C268   1.413       .  A
C267        C274   1.517       .  S
C268        C269   1.403       .  A
C268        H273   1.084       .  S
C269        C270   1.416       .  A
C270        C271   1.517       .  S
C271        F275   1.385       .  S
C271        F276   1.383       .  S
C271        F277   1.382       .  S
C274        F278   1.380       .  S
C274        F279   1.382       .  S
C274        F280   1.384       .  S
C281        C282   1.413       .  A
C281        C286   1.405       .  A
C281        H288   1.081       .  S
C282        C283   1.425       .  A
C283        C284   1.410       .  A
C283        C290   1.521       .  S
C284        C285   1.404       .  A
C284        H289   1.083       .  S
C285        C286   1.412       .  A
C286        C919   1.519       .  S
C287        C918   1.519       .  S
C287        F291   1.385       .  S
C287        F292   1.383       .  S
C287        F925   1.380       .  S
C290        F294   1.383       .  S
C290        F295   1.383       .  S
C290        F296   1.385       .  S
F293        C919   1.380       .  S
C297        C298   1.402       .  A
C297        C302   1.405       .  A
C297        H304   1.084       .  S
C298        C299   1.407       .  A
C299        C300   1.403       .  A
C299        C306   1.517       .  S
C300        C301   1.408       .  A
C300        H305   1.082       .  S
C301        C302   1.415       .  A
C302        C303   1.516       .  S
C303        F307   1.377       .  S
C303        F308   1.383       .  S
C303        F309   1.385       .  S
C306        F310   1.383       .  S
C306        F311   1.382       .  S
C306        F312   1.384       .  S
C313        C314   1.408       .  A
C313        C318   1.410       .  A
C313        H320   1.083       .  S
C314        C315   1.415       .  A
C315        C316   1.414       .  A
C315        C322   1.511       .  S
C316        C317   1.405       .  A
C316        H321   1.083       .  S
C317        C318   1.417       .  A
C318        C319   1.518       .  S
C319        F323   1.384       .  S
C319        F324   1.383       .  S
C319        F325   1.383       .  S
C322        F326   1.381       .  S
C322        F327   1.382       .  S
C322        F328   1.384       .  S
C329        C330   1.398       .  A
C329        C334   1.409       .  A
C329        H336   1.083       .  S
C330        C331   1.422       .  A
C331        C332   1.407       .  A
C331        C970   1.522   1_554  S
C332        C333   1.401       .  A
C332        H337   1.083       .  S
C333        C334   1.421       .  A
C334        C335   1.518       .  S
C335        F339   1.384       .  S
C335        F340   1.381       .  S
C335        F341   1.383       .  S
C338        C963   1.521       .  S
C338        F342   1.379       .  S
C338        F343   1.382       .  S
C338        F344   1.385       .  S
C345        C346   1.400       .  A
C345        C350   1.407       .  A
C345        H984   1.082       .  S
C346        C347   1.418       .  A
C347        C348   1.406       .  A
C347        C354   1.517       .  S
C348        C349   1.403       .  A
C348        H353   1.083       .  S
C349        C350   1.424       .  A
C350        C351   1.520       .  S
C351        F356   1.383       .  S
C351        F357   1.384       .  S
C351        F987   1.385       .  S
H352        C977   1.082       .  S
C354        F358   1.382   1_554  S
C354        F359   1.380       .  S
C354        F360   1.385       .  S
F355        C983   1.385       .  S
C361        C362   1.398       .  A
C361        C366   1.400       .  A
C361        H368   1.081       .  S
C362        C363   1.413       .  A
C363        C364   1.410       .  A
C363       C1002   1.516       .  S
C364        C365   1.409       .  A
C364        H369   1.083       .  S
C365        C366   1.424       .  A
C366        C367   1.523       .  S
C367        F371   1.386       .  S
C367        F372   1.383       .  S
C367        F373   1.383       .  S
C370        C995   1.516       .  S
C370        F374   1.385       .  S
C370        F375   1.383       .  S
C370        F376   1.380   1_556  S
C377        C378   1.409       .  A
C377        C382   1.409       .  A
C377        H384   1.084       .  S
C378        C379   1.425       .  A
C379        C380   1.414       .  A
C379        C386   1.519       .  S
C380        C381   1.403       .  A
C380        H385   1.081       .  S
C381        C382   1.418       .  A
C382       C1015   1.513   1_554  S
C383       C1014   1.513       .  S
C383        F387   1.384       .  S
C383        F388   1.377       .  S
C383        F389   1.383       .  S
C386        F390   1.382       .  S
C386        F391   1.384       .  S
C386        F392   1.385       .  S
C393        C394   1.403       .  A
C393        C398   1.414       .  A
C393        H400   1.083       .  S
C394        C395   1.409       .  A
C395        C396   1.393       .  A
C395        C402   1.519       .  S
C396        C397   1.411       .  A
C396        H401   1.083       .  S
C397        C398   1.426       .  A
C398        C399   1.518       .  S
C399        F403   1.385       .  S
C399        F404   1.383       .  S
C399        F405   1.383       .  S
C402        F406   1.383       .  S
C402        F407   1.381       .  S
C402        F408   1.384       .  S
C409        C410   1.399       .  A
C409        C414   1.413       .  A
C409        H416   1.083       .  S
C410        C411   1.417       .  A
C411        C412   1.395       .  A
C411        C418   1.523       .  S
C412        C413   1.406       .  A
C412        H417   1.084       .  S
C413        C414   1.431       .  A
C414        C415   1.521       .  S
C415        F419   1.385       .  S
C415        F420   1.383       .  S
C415        F421   1.383       .  S
C418        F422   1.383       .  S
C418        F423   1.379       .  S
C418        F424   1.384       .  S
C425        C426   1.404       .  A
C425        C430   1.414       .  A
C425        H432   1.079       .  S
C426        C427   1.418       .  A
C427        C428   1.412       .  A
C427        C434   1.513       .  S
C428        C429   1.408       .  A
C428        H433   1.085       .  S
C429        C430   1.424       .  A
C430        C431   1.520       .  S
C431        F435   1.385       .  S
C431        F436   1.383       .  S
C431        F437   1.383       .  S
C434        F440   1.384       .  S
C434       F1070   1.383       .  S
C434       F1071   1.378       .  S
F438       C1066   1.383   1_554  S
F439       C1066   1.378   1_554  S
C441        C442   1.397       .  A
C441        C446   1.409   1_545  A
C441        H448   1.082   1_545  S
C442        C443   1.413       .  A
C443        C444   1.401       .  A
C443       C1082   1.517       .  S
C444        C445   1.407       .  A
C444        H449   1.084       .  S
C445        C446   1.430   1_545  A
C446        C447   1.520       .  S
C447        F451   1.385       .  S
C447        F452   1.381       .  S
C447        F453   1.383       .  S
C450       C1075   1.517       .  S
C450        F454   1.383       .  S
C450        F455   1.383       .  S
C450        F456   1.384       .  S
C457        C458   1.404   1_565  A
C457        C462   1.407       .  A
C457        H464   1.082       .  S
C458        C459   1.415       .  A
C459        C460   1.402       .  A
C459        C466   1.520       .  S
C460        C461   1.403   1_545  A
C460        H465   1.083       .  S
C461        C462   1.417       .  A
C462        C463   1.520       .  S
C463        F467   1.384       .  S
C463        F468   1.382       .  S
C463        F469   1.384       .  S
C466        F470   1.379       .  S
C466        F471   1.382       .  S
C466        F472   1.385       .  S
C473        C474   1.403       .  A
C473        C478   1.408   1_545  A
C473        H480   1.085   1_545  S
C474        C475   1.415       .  A
C475        C476   1.412       .  A
C475        C482   1.515       .  S
C476        C477   1.404       .  A
C476        H481   1.082       .  S
C477        C478   1.419   1_545  A
C478        C479   1.515       .  S
C479       F1115   1.384       .  S
C479       F1116   1.383       .  S
C479       F1117   1.381       .  S
C482        F486   1.383       .  S
C482        F487   1.383       .  S
C482        F488   1.385       .  S
F483       C1111   1.384       .  S
F484       C1111   1.383       .  S
F485       C1111   1.381       .  S
C489        C490   1.395   1_545  A
C489        C494   1.399       .  A
C489        H496   1.085       .  S
C490        C491   1.415       .  A
C491        C492   1.408       .  A
C491        C498   1.516       .  S
C492        C493   1.401       .  A
C492        H497   1.083       .  S
C493        C494   1.423   1_565  A
C494       C1127   1.522       .  S
C495       C1126   1.522   1_554  S
C495        F499   1.384   1_554  S
C495        F500   1.383       .  S
C495        F501   1.380       .  S
C498        F502   1.382       .  S
C498        F503   1.384       .  S
C498        F504   1.384       .  S
C505        C506   1.404       .  A
C505        C510   1.402       .  A
C505        H512   1.084       .  S
C506        C507   1.412   1_565  A
C507        C508   1.407       .  A
C507        C514   1.516       .  S
C508        C509   1.405   1_545  A
C508        H513   1.081       .  S
C509        C510   1.412       .  A
C510        C511   1.520       .  S
C511        F515   1.385       .  S
C511        F516   1.381       .  S
C511        F517   1.382       .  S
C514        F518   1.383       .  S
C514        F519   1.383       .  S
C514        F520   1.384       .  S
C521        C522   1.407       .  A
C521        C526   1.413   1_565  A
C521        H528   1.085   1_565  S
C522        C523   1.414       .  A
C523        C524   1.408       .  A
C523        C530   1.515       .  S
C524        C525   1.404       .  A
C524        H529   1.083       .  S
C525        C526   1.418   1_565  A
C526        C527   1.514       .  S
C527        F531   1.384       .  S
C527       F1164   1.379       .  S
C527       F1165   1.383       .  S
C530        F534   1.383       .  S
C530        F535   1.380       .  S
C530        F536   1.384       .  S
F532       C1159   1.379       .  S
F533       C1159   1.383       .  S
C537        C538   1.400       .  A
C537        C542   1.400   1_655  A
C537        H544   1.084   1_655  S
C538        C539   1.411       .  A
C539        C540   1.409       .  A
C539        C546   1.517       .  S
C540        C541   1.407       .  A
C540        H545   1.083       .  S
C541        C542   1.416   1_655  A
C542        C543   1.520       .  S
C543        F547   1.384       .  S
C543        F548   1.379       .  S
C543        F549   1.382       .  S
C546        F550   1.383       .  S
C546        F551   1.384       .  S
C546        F552   1.384       .  S
C553        C554   1.404   1_455  A
C553        C558   1.412       .  A
C553        H560   1.082       .  S
C554        C555   1.418       .  A
C555        C556   1.411       .  A
C555        C562   1.516       .  S
C556        C557   1.405   1_655  A
C556        H561   1.085       .  S
C557        C558   1.417       .  A
C558        C559   1.517       .  S
C559        F563   1.384       .  S
C559        F564   1.382       .  S
C559        F565   1.383       .  S
C562        F568   1.384       .  S
C562       F1198   1.382       .  S
C562       F1199   1.382       .  S
F566       C1194   1.382       .  S
F567       C1194   1.382       .  S
C569        C570   1.397   1_655  A
C569        C574   1.407       .  A
C569        H576   1.083       .  S
C570        C571   1.412       .  A
C571        C572   1.398       .  A
C571       C1210   1.517       .  S
C572        C573   1.406   1_455  A
C572        H577   1.084       .  S
C573        C574   1.427       .  A
C574        C575   1.519       .  S
C575        F579   1.385       .  S
C575        F580   1.383       .  S
C575        F581   1.383       .  S
C578       C1203   1.517       .  S
C578        F582   1.383       .  S
C578        F583   1.382       .  S
C578        F584   1.384       .  S
C585        C586   1.403       .  A
C585        C590   1.407       .  A
C585        H592   1.082       .  S
C586        C587   1.415   1_455  A
C587        C588   1.398   1_655  A
C587        C594   1.521       .  S
C588        C589   1.402       .  A
C588        H593   1.083   1_455  S
C589        C590   1.415       .  A
C590        C591   1.516       .  S
C591        F595   1.384       .  S
C591        F596   1.384       .  S
C591        F597   1.382       .  S
C594        F598   1.382       .  S
C594        F599   1.378       .  S
C594        F600   1.384       .  S
C601        C602   1.404   1_455  A
C601        C606   1.411       .  A
C601        H608   1.085       .  S
C602        C603   1.418       .  A
C603        C604   1.414       .  A
C603        C610   1.517       .  S
C604        C605   1.405   1_655  A
C604        H609   1.081       .  S
C605        C606   1.420       .  A
C606       C1239   1.516       .  S
C607       C1238   1.517       .  S
C607        F611   1.384       .  S
C607        F612   1.381       .  S
C607        F613   1.383       .  S
C610        F614   1.383       .  S
C610        F615   1.382       .  S
C610        F616   1.385       .  S
C617        C618   1.396   1_455  A
C617        C622   1.406       .  A
C617       H1256   1.083       .  S
C618        C619   1.412       .  A
C619        C620   1.399       .  A
C619        C626   1.517       .  S
C620        C621   1.405   1_655  A
C620        H625   1.084       .  S
C621        C622   1.428       .  A
C622        C623   1.519       .  S
C623        F628   1.383       .  S
C623        F629   1.383       .  S
C623       F1259   1.385       .  S
H624       C1249   1.083       .  S
C626        F630   1.384       .  S
C626        F631   1.383       .  S
C626        F632   1.383       .  S
F627       C1255   1.385       .  S
N633        C634   1.356       .  A
N633       C1237   1.449       .  S
C634       C1250   1.466   1_455  S
C635        C636   1.364       .  A
C635        H638   1.082       .  S
C636        C637   1.380       .  A
C636        H639   1.083       .  S
C637       C1218   1.466       .  S
N640        C641   1.358       .  A
N640       C1186   1.448       .  S
C641       C1202   1.470   1_655  S
C642        C643   1.366       .  A
C642        H645   1.082       .  S
C643        C644   1.380       .  A
C643        H646   1.082       .  S
C644       C1173   1.470       .  S
N647        C648   1.359       .  A
N647       C1157   1.446       .  S
C648       C1125   1.472       .  S
C649        C650   1.365       .  A
C649        H652   1.082       .  S
C650        C651   1.381       .  A
C650        H653   1.082       .  S
C651       C1141   1.473       .  S
N654        C655   1.359       .  A
N654       C1109   1.446       .  S
C655       C1074   1.475       .  S
C656        C657   1.367       .  A
C656        H659   1.082       .  S
C657        C658   1.380       .  A
C657        H660   1.082       .  S
C658       C1090   1.473       .  S
N661        C662   1.360       .  A
N661       C1058   1.453       .  S
C662       C1026   1.470       .  S
C663        C664   1.362       .  A
C663        H666   1.082       .  S
C664        C665   1.382       .  A
C664        H667   1.082       .  S
C665       C1042   1.472       .  S
N668        C669   1.364       .  A
N668       C1013   1.451       .  S
C669        C978   1.479       .  S
C670        C671   1.365       .  A
C670        H673   1.082       .  S
C671        C672   1.380       .  A
C671        H674   1.082       .  S
C672        C994   1.476       .  S
N675        C676   1.361       .  A
N675        C946   1.449       .  S
C676        C962   1.478       .  S
C677        C678   1.365       .  A
C677        H680   1.082       .  S
C678        C679   1.383       .  A
C678        H681   1.083       .  S
C679        C933   1.481       .  S
N682        C683   1.364       .  A
N682        C898   1.447       .  S
C683        C917   1.478       .  S
C684        C685   1.365       .  A
C684        H687   1.083       .  S
C685        C686   1.378       .  A
C685        H688   1.082       .  S
C686        C882   1.471       .  S
O689       Mg691   2.139       .  S
O689       Mg697   2.135       .  S
O689        C724   1.240       .  S
C690        H729   1.081       .  S
C690        O703   1.238       .  S
C690        O727   1.272       .  A
Mg691       O720   2.132       .  S
Mg691       O735   2.312       .  S
Mg691       O731   2.281       .  S
Mg691       O702   2.303       .  S
O692       Mg734   2.130       .  S
O692       Mg717   2.118       .  S
O692        C713   1.240       .  S
O693        C724   1.275       .  A
O693       Mg717   2.312       .  S
C694        C997   1.490       .  S
C694        O696   1.268       .  A
C694        O708   1.276       .  A
O695        C723   1.274       .  A
O695       Mg697   2.297       .  S
O696       Mg728   2.243       .  S
Mg697       O703   2.140       .  S
Mg697       O711   2.265       .  S
Mg697       O699   2.303       .  S
C698        C914   1.502       .  S
C698        O736   1.272       .  A
C698        O704   1.275       .  A
O699        C706   1.271       .  A
H700        C713   1.081       .  S
C701        H726   1.081       .  S
C701        O715   1.240       .  S
C701        O716   1.275       .  A
O702        C725   1.272       .  A
O703       Mg717   2.128       .  S
O704       Mg734   2.328       .  S
C705       C1061   1.504       .  S
C705        O718   1.276       .  A
C705        O710   1.281       .  A
C706       C1045   1.498       .  S
C706        O733   1.275       .  A
Mg707       O714   2.140       .  S
Mg707       O715   2.127       .  S
Mg707       O708   2.321       .  S
Mg707       O709   2.305       .  S
Mg707       O736   2.248       .  S
O709        C713   1.274       .  A
O710       Mg717   2.359       .  S
O711        C730   1.272       .  A
O712        C732   1.279       .  A
O712       Mg728   2.352       .  S
O714       Mg728   2.126       .  S
O714        C725   1.238       .  S
O715       Mg734   2.150       .  S
O716       Mg728   2.320       .  S
Mg717       O733   2.253       .  S
O718       Mg734   2.291       .  S
H719        C724   1.081       .  S
O720       Mg728   2.112       .  S
O720        C723   1.240       .  S
H721        C723   1.081       .  S
H722        C725   1.081       .  S
O727       Mg734   2.303       .  S
C730        C965   1.480       .  S
C730        O735   1.275       .  A
O731        C732   1.275       .  A
C732       C1010   1.505       .  S
O737       Mg739   2.138       .  S
O737       Mg745   2.130       .  S
O737        C772   1.242   1_545  S
C738        H777   1.081       .  S
C738        O751   1.237       .  S
C738        O775   1.272       .  A
Mg739       O768   2.128       .  S
Mg739       O783   2.315       .  S
Mg739       O779   2.276       .  S
Mg739       O750   2.304   1_545  S
O740       Mg782   2.124       .  S
O740       Mg765   2.104       .  S
O740        C761   1.239       .  S
O741        C772   1.277       .  A
O741       Mg765   2.320       .  S
C742       C1093   1.477       .  S
C742        O744   1.272   1_565  A
C742        O756   1.269       .  A
O743        C771   1.274       .  A
O743       Mg745   2.301       .  S
O744       Mg776   2.255       .  S
Mg745       O751   2.141       .  S
Mg745       O759   2.258       .  S
Mg745       O747   2.304       .  S
C746       C1029   1.500       .  S
C746        O784   1.269       .  A
C746        O752   1.276       .  A
O747        C754   1.272       .  A
H748        C761   1.081       .  S
C749        H774   1.081       .  S
C749        O763   1.241   1_545  S
C749        O764   1.276       .  A
O750        C773   1.271       .  A
O751       Mg765   2.124   1_545  S
O752       Mg782   2.339       .  S
C753       C1154   1.489       .  S
C753        O766   1.275       .  A
C753        O758   1.281       .  A
C754       C1138   1.472   1_545  S
C754        O781   1.270   1_545  A
Mg755       O762   2.128       .  S
Mg755       O763   2.131       .  S
Mg755       O756   2.284       .  S
Mg755       O757   2.292       .  S
Mg755       O784   2.218       .  S
O757        C761   1.271       .  A
O758       Mg765   2.357       .  S
O759        C778   1.270       .  A
O760        C780   1.280       .  A
O760       Mg776   2.352       .  S
O762       Mg776   2.129   1_565  S
O762        C773   1.237       .  S
O763       Mg782   2.143       .  S
O764       Mg776   2.316       .  S
Mg765       O781   2.238       .  S
O766       Mg782   2.280       .  S
H767        C772   1.081       .  S
O768       Mg776   2.113       .  S
O768        C771   1.241       .  S
H769        C771   1.081       .  S
H770        C773   1.081       .  S
O775       Mg782   2.304   1_545  S
C778        C981   1.490       .  S
C778        O783   1.276       .  A
O779        C780   1.273       .  A
C780       C1106   1.485       .  S
O785       Mg787   2.138   1_565  S
O785       Mg793   2.135       .  S
O785        C820   1.241   1_455  S
C786        H825   1.081       .  S
C786        O799   1.236       .  S
C786        O823   1.270       .  A
Mg787       O816   2.132       .  S
Mg787       O831   2.318       .  S
Mg787       O827   2.278       .  S
Mg787       O798   2.301   1_455  S
O788       Mg830   2.132       .  S
O788       Mg813   2.114       .  S
O788        C809   1.241       .  S
O789        C820   1.276       .  A
O789       Mg813   2.318       .  S
C790       C1170   1.468       .  S
C790        O792   1.271       .  A
C790        O804   1.269       .  A
O791        C819   1.274       .  A
O791       Mg793   2.296   1_545  S
O792       Mg824   2.250   1_655  S
Mg793       O799   2.140       .  S
Mg793       O807   2.255       .  S
Mg793       O795   2.287       .  S
C794       C1122   1.469       .  S
C794        O832   1.268   1_565  A
C794        O800   1.275       .  A
O795        C802   1.270       .  A
H796        C809   1.081       .  S
C797        H822   1.081       .  S
C797        O811   1.241   1_455  S
C797        O812   1.275       .  A
O798        C821   1.270       .  A
O799       Mg813   2.130   1_455  S
O800       Mg830   2.312       .  S
C801       C1234   1.493       .  S
C801        O814   1.275       .  A
C801        O806   1.281       .  A
C802       C1221   1.474       .  S
C802        O829   1.271       .  A
Mg803       O810   2.138       .  S
Mg803       O811   2.139       .  S
Mg803       O804   2.280       .  S
Mg803       O805   2.298   1_545  S
Mg803       O832   2.242       .  S
O805        C809   1.274       .  A
O806       Mg813   2.360       .  S
O807        C826   1.269   1_565  A
O808        C828   1.281       .  A
O808       Mg824   2.356       .  S
O810       Mg824   2.130   1_655  S
O810        C821   1.236       .  S
O811       Mg830   2.140   1_545  S
O812       Mg824   2.315       .  S
Mg813       O829   2.245   1_655  S
O814       Mg830   2.284       .  S
H815        C820   1.081       .  S
O816       Mg824   2.115       .  S
O816        C819   1.241       .  S
H817        C819   1.081       .  S
H818        C821   1.081       .  S
O823       Mg830   2.301   1_455  S
C826       C1077   1.496       .  S
C826        O831   1.277       .  A
O827        C828   1.274       .  A
C828       C1189   1.489       .  S
O833       Mg835   2.137   1_655  S
O833       Mg841   2.132       .  S
O833        C868   1.241       .  S
C834        H873   1.081       .  S
C834        O847   1.237       .  S
C834        O871   1.271       .  A
Mg835       O864   2.129       .  S
Mg835       O879   2.299       .  S
Mg835       O875   2.270       .  S
Mg835       O846   2.299       .  S
O836       Mg878   2.126       .  S
O836       Mg861   2.113       .  S
O836        C857   1.242       .  S
O837        C868   1.276       .  A
O837       Mg861   2.320       .  S
C838        C930   1.467       .  S
C838        O840   1.269       .  A
C838        O852   1.273       .  A
O839        C867   1.275   1_655  A
O839       Mg841   2.306       .  S
O840       Mg872   2.248       .  S
Mg841       O847   2.134       .  S
Mg841       O855   2.253       .  S
Mg841       O843   2.310       .  S
C842       C1253   1.487       .  S
C842        O880   1.268       .  A
C842        O848   1.275   1_455  A
O843        C850   1.273       .  A
H844        C857   1.081       .  S
C845        H870   1.081       .  S
C845        O859   1.240       .  S
C845        O860   1.274       .  A
O846        C869   1.270       .  A
O847       Mg861   2.125       .  S
O848       Mg878   2.300       .  S
C849        C901   1.486       .  S
C849        O862   1.272       .  A
C849        O854   1.281       .  A
C850        C885   1.478       .  S
C850        O877   1.271       .  A
Mg851       O858   2.137       .  S
Mg851       O859   2.125       .  S
Mg851       O852   2.306       .  S
Mg851       O853   2.303       .  S
Mg851       O880   2.248       .  S
O853        C857   1.275   1_455  A
O854       Mg861   2.360       .  S
O855        C874   1.269       .  A
O856        C876   1.279       .  A
O856       Mg872   2.351       .  S
O858       Mg872   2.127       .  S
O858        C869   1.236       .  S
O859       Mg878   2.128   1_455  S
O860       Mg872   2.313       .  S
Mg861       O877   2.245       .  S
O862       Mg878   2.272       .  S
H863        C868   1.081       .  S
O864       Mg872   2.121       .  S
O864        C867   1.241       .  S
H865        C867   1.081       .  S
H866        C869   1.082       .  S
O871       Mg878   2.301       .  S
C874       C1205   1.489       .  S
C874        O879   1.274   1_655  A
O875        C876   1.273       .  A
C876        C949   1.487       .  S
C881        C882   1.403       .  A
C881        C886   1.407       .  A
C881        H888   1.082       .  S
C882        C883   1.411       .  A
C883        C884   1.402       .  A
C883        C890   1.519       .  S
C884        C885   1.406       .  A
C884        H889   1.084       .  S
C885        C886   1.416       .  A
C886        C887   1.517       .  S
C887        F891   1.385       .  S
C887        F892   1.383       .  S
C887        F893   1.383       .  S
C890        F894   1.382       .  S
C890        F896   1.385       .  S
C897        C898   1.403       .  A
C897        C902   1.408       .  A
C897        H904   1.080       .  S
C898        C899   1.422       .  A
C899        C900   1.413       .  A
C899        C906   1.517       .  S
C900        C901   1.403       .  A
C900        H905   1.084       .  S
C901        C902   1.416       .  A
C902        C903   1.517       .  S
C903        F907   1.385       .  S
C903        F908   1.383       .  S
C903        F909   1.382       .  S
C906        F910   1.380       .  S
C906        F911   1.382       .  S
C906        F912   1.384       .  S
C913        C914   1.412       .  A
C913        C918   1.405       .  A
C913        H920   1.081       .  S
C914        C915   1.426       .  A
C915        C916   1.410       .  A
C915        C922   1.521       .  S
C916        C917   1.404       .  A
C916        H921   1.083       .  S
C917        C918   1.412       .  A
C919        F923   1.385       .  S
C919        F924   1.383       .  S
C922        F926   1.383       .  S
C922        F927   1.383       .  S
C922        F928   1.385       .  S
C929        C930   1.403       .  A
C929        C934   1.406       .  A
C929        H936   1.084       .  S
C930        C931   1.407       .  A
C931        C932   1.404       .  A
C931        C938   1.516       .  S
C932        C933   1.409       .  A
C932        H937   1.082       .  S
C933        C934   1.415       .  A
C934        C935   1.516       .  S
C935        F939   1.377   1_556  S
C935        F940   1.383       .  S
C935        F941   1.385       .  S
C938        F942   1.383       .  S
C938        F943   1.382       .  S
C938        F944   1.384       .  S
C945        C946   1.407       .  A
C945        C950   1.410       .  A
C945        H952   1.083       .  S
C946        C947   1.415       .  A
C947        C948   1.415       .  A
C947        C954   1.511       .  S
C948        C949   1.406       .  A
C948        H953   1.083       .  S
C949        C950   1.417       .  A
C950        C951   1.518       .  S
C951        F955   1.385       .  S
C951        F956   1.383       .  S
C951        F957   1.383       .  S
C954        F958   1.381       .  S
C954        F959   1.382       .  S
C954        F960   1.384       .  S
C961        C962   1.398       .  A
C961        C966   1.409       .  A
C961        H968   1.083       .  S
C962        C963   1.422       .  A
C963        C964   1.406       .  A
C964        C965   1.400       .  A
C964        H969   1.083       .  S
C965        C966   1.421       .  A
C966        C967   1.518       .  S
C967        F971   1.384       .  S
C967        F972   1.382       .  S
C967        F973   1.383       .  S
C970        F974   1.378       .  S
C970        F975   1.382       .  S
C970        F976   1.385       .  S
C977        C978   1.400       .  A
C977        C982   1.408       .  A
C978        C979   1.418       .  A
C979        C980   1.407       .  A
C979        C986   1.517       .  S
C980        C981   1.404       .  A
C980        H985   1.083       .  S
C981        C982   1.424       .  A
C982        C983   1.519       .  S
C983        F988   1.383       .  S
C983        F989   1.384       .  S
C986        F990   1.382       .  S
C986        F991   1.380       .  S
C986        F992   1.385       .  S
C993        C994   1.398       .  A
C993        C998   1.401       .  A
C993       H1000   1.082       .  S
C994        C995   1.412       .  A
C995        C996   1.409       .  A
C996        C997   1.409       .  A
C996       H1001   1.083       .  S
C997        C998   1.426       .  A
C998        C999   1.524       .  S
C999       F1003   1.386       .  S
C999       F1004   1.383       .  S
C999       F1005   1.383       .  S
C1002      F1006   1.385       .  S
C1002      F1007   1.383       .  S
C1002      F1008   1.380       .  S
C1009      C1010   1.408       .  A
C1009      C1014   1.410       .  A
C1009      H1016   1.084       .  S
C1010      C1011   1.426       .  A
C1011      C1012   1.414       .  A
C1011      C1018   1.519       .  S
C1012      C1013   1.403       .  A
C1012      H1017   1.081       .  S
C1013      C1014   1.419       .  A
C1015      F1019   1.384   1_556  S
C1015      F1020   1.377       .  S
C1015      F1021   1.383       .  S
C1018      F1022   1.382       .  S
C1018      F1023   1.383       .  S
C1018      F1024   1.385       .  S
C1025      C1026   1.402       .  A
C1025      C1030   1.414       .  A
C1025      H1032   1.083       .  S
C1026      C1027   1.410       .  A
C1027      C1028   1.395       .  A
C1027      C1034   1.519       .  S
C1028      C1029   1.411       .  A
C1028      H1033   1.084       .  S
C1029      C1030   1.426       .  A
C1030      C1031   1.517       .  S
C1031      F1035   1.385       .  S
C1031      F1036   1.383       .  S
C1031      F1037   1.383       .  S
C1034      F1038   1.383       .  S
C1034      F1039   1.381       .  S
C1034      F1040   1.384       .  S
C1041      C1042   1.399       .  A
C1041      C1046   1.412       .  A
C1041      H1048   1.083       .  S
C1042      C1043   1.417       .  A
C1043      C1044   1.395       .  A
C1043      C1050   1.524       .  S
C1044      C1045   1.406       .  A
C1044      H1049   1.084       .  S
C1045      C1046   1.431       .  A
C1046      C1047   1.521       .  S
C1047      F1051   1.385       .  S
C1047      F1052   1.383       .  S
C1047      F1053   1.383       .  S
C1050      F1054   1.383       .  S
C1050      F1055   1.380       .  S
C1050      F1056   1.384       .  S
C1057      C1058   1.404       .  A
C1057      C1062   1.413       .  A
C1057      H1064   1.080       .  S
C1058      C1059   1.418       .  A
C1059      C1060   1.412       .  A
C1059      C1066   1.513       .  S
C1060      C1061   1.409       .  A
C1060      H1065   1.085       .  S
C1061      C1062   1.424       .  A
C1062      C1063   1.520       .  S
C1063      F1067   1.385       .  S
C1063      F1068   1.383       .  S
C1063      F1069   1.383       .  S
C1066      F1072   1.384       .  S
C1073      C1074   1.397       .  A
C1073      C1078   1.409   1_545  A
C1073      H1080   1.082   1_545  S
C1074      C1075   1.413       .  A
C1075      C1076   1.401       .  A
C1076      C1077   1.407       .  A
C1076      H1081   1.084       .  S
C1077      C1078   1.429   1_545  A
C1078      C1079   1.520       .  S
C1079      F1083   1.385       .  S
C1079      F1084   1.381       .  S
C1079      F1085   1.384       .  S
C1082      F1086   1.383       .  S
C1082      F1087   1.384       .  S
C1082      F1088   1.384       .  S
C1089      C1090   1.404   1_565  A
C1089      C1094   1.408       .  A
C1089      H1096   1.082       .  S
C1090      C1091   1.415       .  A
C1091      C1092   1.402       .  A
C1091      C1098   1.520       .  S
C1092      C1093   1.403   1_545  A
C1092      H1097   1.083       .  S
C1093      C1094   1.417       .  A
C1094      C1095   1.520       .  S
C1095      F1099   1.384       .  S
C1095      F1100   1.383       .  S
C1095      F1101   1.384       .  S
C1098      F1102   1.380       .  S
C1098      F1103   1.382       .  S
C1098      F1104   1.385       .  S
C1105      C1106   1.403       .  A
C1105      C1110   1.408   1_545  A
C1105      H1112   1.085   1_545  S
C1106      C1107   1.415       .  A
C1107      C1108   1.413       .  A
C1107      C1114   1.515       .  S
C1108      C1109   1.404       .  A
C1108      H1113   1.083       .  S
C1109      C1110   1.419   1_545  A
C1110      C1111   1.515       .  S
C1114      F1118   1.383       .  S
C1114      F1119   1.383       .  S
C1114      F1120   1.385       .  S
C1121      C1122   1.396   1_545  A
C1121      C1126   1.400       .  A
C1121      H1128   1.085       .  S
C1122      C1123   1.415       .  A
C1123      C1124   1.409       .  A
C1123      C1130   1.516       .  S
C1124      C1125   1.401       .  A
C1124      H1129   1.083       .  S
C1125      C1126   1.424   1_565  A
C1127      F1131   1.384       .  S
C1127      F1132   1.383       .  S
C1127      F1133   1.381       .  S
C1130      F1134   1.382       .  S
C1130      F1135   1.384       .  S
C1130      F1136   1.384       .  S
C1137      C1138   1.405       .  A
C1137      C1142   1.402       .  A
C1137      H1144   1.084       .  S
C1138      C1139   1.412   1_565  A
C1139      C1140   1.407       .  A
C1139      C1146   1.517       .  S
C1140      C1141   1.405   1_545  A
C1140      H1145   1.081       .  S
C1141      C1142   1.412       .  A
C1142      C1143   1.520       .  S
C1143      F1147   1.384       .  S
C1143      F1148   1.381       .  S
C1143      F1149   1.382       .  S
C1146      F1150   1.383       .  S
C1146      F1151   1.383       .  S
C1146      F1152   1.384       .  S
C1153      C1154   1.407       .  A
C1153      C1158   1.413   1_565  A
C1153      H1160   1.085   1_565  S
C1154      C1155   1.415       .  A
C1155      C1156   1.408       .  A
C1155      C1162   1.515       .  S
C1156      C1157   1.404       .  A
C1156      H1161   1.083       .  S
C1157      C1158   1.417   1_565  A
C1158      C1159   1.513       .  S
C1159      F1163   1.384       .  S
C1162      F1166   1.383       .  S
C1162      F1167   1.380       .  S
C1162      F1168   1.385       .  S
C1169      C1170   1.400       .  A
C1169      C1174   1.399   1_655  A
C1169      H1176   1.084   1_655  S
C1170      C1171   1.412       .  A
C1171      C1172   1.408       .  A
C1171      C1178   1.517       .  S
C1172      C1173   1.407       .  A
C1172      H1177   1.083       .  S
C1173      C1174   1.415   1_655  A
C1174      C1175   1.520       .  S
C1175      F1179   1.384       .  S
C1175      F1180   1.378       .  S
C1175      F1181   1.382       .  S
C1178      F1182   1.383       .  S
C1178      F1183   1.383       .  S
C1178      F1184   1.384       .  S
C1185      C1186   1.404   1_455  A
C1185      C1190   1.412       .  A
C1185      H1192   1.082       .  S
C1186      C1187   1.418       .  A
C1187      C1188   1.411       .  A
C1187      C1194   1.516       .  S
C1188      C1189   1.405   1_655  A
C1188      H1193   1.085       .  S
C1189      C1190   1.417       .  A
C1190      C1191   1.517       .  S
C1191      F1195   1.385       .  S
C1191      F1196   1.382       .  S
C1191      F1197   1.383       .  S
C1194      F1200   1.384       .  S
C1201      C1202   1.397   1_655  A
C1201      C1206   1.407       .  A
C1201      H1208   1.083       .  S
C1202      C1203   1.413       .  A
C1203      C1204   1.399       .  A
C1204      C1205   1.406   1_455  A
C1204      H1209   1.084       .  S
C1205      C1206   1.427       .  A
C1206      C1207   1.519       .  S
C1207      F1211   1.385       .  S
C1207      F1212   1.383       .  S
C1207      F1213   1.383       .  S
C1210      F1214   1.383       .  S
C1210      F1215   1.383       .  S
C1210      F1216   1.384       .  S
C1217      C1218   1.403       .  A
C1217      C1222   1.407       .  A
C1217      H1224   1.082       .  S
C1218      C1219   1.415   1_455  A
C1219      C1220   1.399   1_655  A
C1219      C1226   1.521       .  S
C1220      C1221   1.402       .  A
C1220      H1225   1.083   1_455  S
C1221      C1222   1.415       .  A
C1222      C1223   1.517       .  S
C1223      F1227   1.384       .  S
C1223      F1228   1.384       .  S
C1223      F1229   1.382       .  S
C1226      F1230   1.382       .  S
C1226      F1231   1.378       .  S
C1226      F1232   1.384       .  S
C1233      C1234   1.404   1_455  A
C1233      C1238   1.411       .  A
C1233      H1240   1.086       .  S
C1234      C1235   1.418       .  A
C1235      C1236   1.414       .  A
C1235      C1242   1.517       .  S
C1236      C1237   1.404   1_655  A
C1236      H1241   1.081       .  S
C1237      C1238   1.420       .  A
C1239      F1243   1.384       .  S
C1239      F1244   1.381       .  S
C1239      F1245   1.383       .  S
C1242      F1246   1.383       .  S
C1242      F1247   1.382       .  S
C1242      F1248   1.384       .  S
C1249      C1250   1.396   1_455  A
C1249      C1254   1.406       .  A
C1250      C1251   1.412       .  A
C1251      C1252   1.398       .  A
C1251      C1258   1.517       .  S
C1252      C1253   1.405   1_655  A
C1252      H1257   1.084       .  S
C1253      C1254   1.428       .  A
C1254      C1255   1.520       .  S
C1255      F1260   1.383       .  S
C1255      F1261   1.383       .  S
C1258      F1262   1.384       .  S
C1258      F1263   1.383   1_556  S
C1258      F1264   1.383   1_556  S
