geometry optimzed in LAMMPS
_audit_creation_date              2020-11-30 
_audit_creation_method            'lammps2cif' 
_symmetry_space_group_name_H-M    'P1' 
_symmetry_Int_Tables_number       1 
_symmetry_cell_setting            triclinic 
loop_ 
_symmetry_equiv_pos_as_xyz 
  x,y,z 
_cell_length_a                    46.416473458876894 
_cell_length_b                    46.42946034561186 
_cell_length_c                    46.311071394467454 
_cell_angle_alpha                 90.09180724036169 
_cell_angle_beta                  89.96939789556345 
_cell_angle_gamma                 90.0203921919752 
loop_ 
_atom_site_label 
_atom_site_type_symbol 
_atom_site_fract_x 
_atom_site_fract_y 
_atom_site_fract_z 
_atom_site_charge 
C1          C  0.70756877  0.70797611  0.74382548     0.03260
C2          C  0.69497991  0.73234411  0.73122134    -0.12890
C3          C  0.70786754  0.74543477  0.70720094     0.00760
C4          C  0.73329341  0.73394562  0.69565781    -0.11410
C5          C  0.74562788  0.70924556  0.70780714     0.03260
C6          C  0.73292024  0.69649401  0.73209031    -0.10830
H7          H  0.67449722  0.74026275  0.73921653     0.08850
H8          H  0.74224297  0.74291107  0.67599253     0.06380
H9          H  0.74163906  0.67658764  0.74062410     0.06230
C10         C  0.30007835  0.70829066  0.26292475     0.03260
C11         C  0.27541257  0.69511370  0.27433792    -0.12890
C12         C  0.26189159  0.70667450  0.29880880     0.00760
C13         C  0.27297332  0.73163354  0.31174145    -0.11410
C14         C  0.29772557  0.74479626  0.30052243     0.03260
C15         C  0.31118304  0.73313486  0.27605277    -0.10830
H16         H  0.26779194  0.67496532  0.26525743     0.08850
H17         H  0.26352807  0.73964212  0.33161119     0.06380
H18         H  0.33121983  0.74233922  0.26831867     0.06230
C19         C  0.70548244  0.29752836  0.74424742     0.03260
C20         C  0.69480830  0.27281283  0.73054166    -0.12890
C21         C  0.70884624  0.26157943  0.70619942     0.00760
C22         C  0.73374314  0.27503705  0.69569285    -0.11410
C23         C  0.74436435  0.29990732  0.70917317     0.03260
C24         C  0.73027175  0.31103743  0.73351706    -0.10830
H25         H  0.67467779  0.26337512  0.73773030     0.08850
H26         H  0.74361605  0.26739374  0.67588726     0.06380
H27         H  0.73754033  0.33113035  0.74300350     0.06230
C28         C  0.29854802  0.26215961  0.70726979     0.03260
C29         C  0.27371189  0.27447749  0.69534551    -0.12890
C30         C  0.26149992  0.29910757  0.70787507     0.00760
C31         C  0.27409039  0.31129621  0.73252495    -0.11410
C32         C  0.29894566  0.29907085  0.74450499     0.03260
C33         C  0.31106860  0.27443844  0.73190844    -0.10830
H34         H  0.26500501  0.26603115  0.67532599     0.08850
H35         H  0.26566965  0.33128650  0.74123472     0.06380
H36         H  0.33118968  0.26592914  0.74016851     0.06230
C37         C  0.26219805  0.70811361  0.70739234     0.03260
C38         C  0.27428001  0.73304262  0.69544104    -0.12890
C39         C  0.29900814  0.74529895  0.70768583     0.00760
C40         C  0.31141730  0.73280064  0.73223627    -0.11410
C41         C  0.29931588  0.70796093  0.74439445     0.03260
C42         C  0.27470140  0.69565184  0.73192049    -0.10830
H43         H  0.26564327  0.74172105  0.67551951     0.08850
H44         H  0.33142814  0.74133483  0.74077503     0.06380
H45         H  0.26632963  0.67549639  0.74023346     0.06230
C46         C  0.74380567  0.29994544  0.29867473     0.03260
C47         C  0.73240276  0.27488972  0.31107109    -0.12890
C48         C  0.70824020  0.26150943  0.29881058     0.00760
C49         C  0.69568341  0.27306680  0.27388710    -0.11410
C50         C  0.70679077  0.29828873  0.26160821     0.03260
C51         C  0.73088638  0.31165770  0.27400553    -0.10830
H52         H  0.74121338  0.26684160  0.33117915     0.08850
H53         H  0.67603283  0.26370926  0.26536739     0.06380
H54         H  0.73857249  0.33197583  0.26543022     0.06230
O55         O  0.47254483  0.53199372  0.17813288    -0.72810
O56         O  0.53444000  0.47468493  0.17770841    -0.73790
O57         O  0.47477095  0.47246480  0.17805928    -0.62410
O58         O  0.53225153  0.53419550  0.17782639    -0.70820
O59         O  0.53438668  0.53514698  0.22567812    -0.70370
O60         O  0.47311416  0.47144371  0.22592460    -0.61630
O61         O  0.53560911  0.47279547  0.22556389    -0.74130
O62         O  0.47180967  0.53390820  0.22599915    -0.72910
Cu63       Cu  0.50348717  0.50334524  0.17661400     1.04560
Cu64       Cu  0.50372916  0.50333725  0.22782423     1.04330
C65         C  0.46217973  0.54219073  0.20143601     0.93390
C66         C  0.54499262  0.46448427  0.20088135     0.92530
C67         C  0.46456595  0.46207889  0.20132243     0.84670
C68         C  0.54281605  0.54441902  0.20102084     0.90940
N69         N  0.33231658  0.33114171  0.19890731    -0.27160
N70         N  0.34655560  0.34427157  0.22004951    -0.35010
C71         C  0.33699542  0.33424655  0.24550426     0.01180
C72         C  0.31589525  0.31404571  0.24026942     0.07210
C73         C  0.31331445  0.31256487  0.21062831    -0.05890
H74         H  0.34471592  0.34135924  0.26637205     0.07880
H75         H  0.29868470  0.29907893  0.19844759     0.09080
Cu76       Cu  0.37841381  0.37574488  0.21614837     0.44170
Cu77       Cu  0.33798022  0.33779189  0.15463123     0.41990
Cu78       Cu  0.39248033  0.38817412  0.14295963     0.43880
N79         N  0.40920826  0.40567502  0.20321999    -0.34540
N80         N  0.41378332  0.40927324  0.17535596    -0.28800
C81         C  0.43391543  0.42934975  0.17139435    -0.04900
C82         C  0.44282990  0.43927241  0.19798439     0.07320
C83         C  0.42672815  0.42380250  0.21801312     0.01120
H84         H  0.44134243  0.43644011  0.15041795     0.08770
H85         H  0.42749917  0.42570362  0.24128366     0.07850
N86         N  0.37042550  0.36957470  0.10952414    -0.35990
N87         N  0.34976870  0.35040947  0.11304839    -0.28170
C88         C  0.33946791  0.34298561  0.08678988    -0.03410
C89         C  0.35428647  0.35876051  0.06600587     0.05200
C90         C  0.37388614  0.37509786  0.08138346     0.03290
H91         H  0.32217421  0.32779051  0.08312770     0.08400
H92         H  0.38980022  0.38982162  0.07286247     0.07230
N93         N  0.33409484  0.67692763  0.19935944    -0.27160
N94         N  0.34774194  0.66315918  0.22042951    -0.35010
C95         C  0.33778127  0.67267554  0.24595337     0.01180
C96         C  0.31706003  0.69326285  0.24085520     0.07210
C97         C  0.31512684  0.69549690  0.21120340    -0.05890
H98         H  0.34485925  0.66484319  0.26676549     0.07880
H99         H  0.30079187  0.70931595  0.19910143     0.09080
Cu100      Cu  0.37869286  0.63088488  0.21626696     0.44170
Cu101      Cu  0.34008441  0.67047546  0.15504130     0.41990
Cu102      Cu  0.38573305  0.61169794  0.14337521     0.43880
N103        N  0.40636819  0.59804507  0.20340466    -0.34540
N104        N  0.40779320  0.59134254  0.17575764    -0.28800
C105        C  0.42718462  0.57052509  0.17183720    -0.04900
C106        C  0.43889159  0.56340323  0.19822265     0.07320
C107        C  0.42517277  0.58123165  0.21808616     0.01120
H108        H  0.43286560  0.56166284  0.15096769     0.08770
H109        H  0.42900571  0.58238287  0.24109781     0.07850
N110        N  0.36834255  0.63468732  0.10990224    -0.35990
N111        N  0.35122060  0.65706893  0.11344456    -0.28170
C112        C  0.34466047  0.66785571  0.08717551    -0.03410
C113        C  0.35885864  0.65152244  0.06633813     0.05200
C114        C  0.37336036  0.63056970  0.08172683     0.03290
H115        H  0.33121683  0.68652691  0.08354006     0.08400
H116        H  0.38661044  0.61339763  0.07320660     0.07230
N117        N  0.67106822  0.32804888  0.19837094    -0.27160
N118        N  0.65929519  0.34359149  0.21938842    -0.35010
C119        C  0.67049934  0.33524711  0.24475331     0.01180
C120        C  0.69004010  0.31353462  0.23960643     0.07210
C121        C  0.68990279  0.30932752  0.21010123    -0.05890
H122        H  0.66477547  0.34434750  0.26549963     0.07880
H123        H  0.70273411  0.29405450  0.19799931     0.09080
Cu124      Cu  0.62874357  0.37617888  0.21531568     0.44170
Cu125      Cu  0.66318833  0.33277897  0.15420801     0.41990
Cu126      Cu  0.61995277  0.39347500  0.14228281     0.43880
N127        N  0.60076586  0.40865001  0.20245593    -0.34540
N128        N  0.59864504  0.41467259  0.17472091    -0.28800
C129        C  0.57917436  0.43541937  0.17087875    -0.04900
C130        C  0.56813075  0.44315397  0.19741673     0.07320
C131        C  0.58232774  0.42579448  0.21727230     0.01120
H132        H  0.57298213  0.44380520  0.14999178     0.08770
H133        H  0.57908614  0.42520133  0.24039727     0.07850
N134        N  0.63742280  0.37014229  0.10899415    -0.35990
N135        N  0.65317905  0.34680115  0.11263250    -0.28170
C136        C  0.66107621  0.33673867  0.08640726    -0.03410
C137        C  0.64972895  0.35497277  0.06547624     0.05200
C138        C  0.63486908  0.37578067  0.08077781     0.03290
H139        H  0.67474665  0.31819584  0.08291865     0.08400
H140        H  0.62298979  0.39382869  0.07206399     0.07230
N141        N  0.67776833  0.67256205  0.19862669    -0.27160
N142        N  0.66366035  0.65915860  0.21965576    -0.35010
C143        C  0.67294427  0.66925122  0.24519691     0.01180
C144        C  0.69371110  0.68981567  0.24016269     0.07210
C145        C  0.69634713  0.69148826  0.21052849    -0.05890
H146        H  0.66496497  0.66223142  0.26598452     0.07880
H147        H  0.71052841  0.70552984  0.19847577     0.09080
Cu148      Cu  0.63158700  0.62798697  0.21556401     0.44170
Cu149      Cu  0.67192761  0.66622888  0.15427604     0.41990
Cu150      Cu  0.61702620  0.61604749  0.14247656     0.43880
N151        N  0.59985143  0.59907242  0.20269255    -0.34540
N152        N  0.59505847  0.59562085  0.17484281    -0.28800
C153        C  0.57414420  0.57633060  0.17094114    -0.04900
C154        C  0.56499631  0.56675640  0.19756553     0.07320
C155        C  0.58175766  0.58160819  0.21753748     0.01120
H156        H  0.56640812  0.56945615  0.14999069     0.08770
H157        H  0.58108292  0.57968698  0.24080415     0.07850
N158        N  0.63796393  0.63597499  0.10910273    -0.35990
N159        N  0.65881042  0.65494430  0.11264126    -0.28170
C160        C  0.66732891  0.66426293  0.08635421    -0.03410
C161        C  0.65055989  0.65057915  0.06552462     0.05200
C162        C  0.63248149  0.63261864  0.08093383     0.03290
H163        H  0.68391153  0.68022476  0.08270050     0.08400
H164        H  0.61648978  0.61795131  0.07241100     0.07230
O165        O  0.47276559  0.53281297  0.82944688    -0.72810
O166        O  0.53378001  0.47452890  0.82925804    -0.73790
O167        O  0.53246851  0.53410797  0.82924872    -0.62410
O168        O  0.47402877  0.47321488  0.82945926    -0.70820
O169        O  0.47219444  0.47198652  0.78160173    -0.70370
O170        O  0.53402011  0.53516298  0.78138048    -0.61630
O171        O  0.53469448  0.47270347  0.78138880    -0.74130
O172        O  0.47149003  0.53440593  0.78158521    -0.72910
Cu173      Cu  0.50326273  0.50366466  0.83067543     1.04560
Cu174      Cu  0.50309612  0.50356061  0.77946236     1.04330
C175        C  0.46229141  0.54301379  0.80623450     0.93390
C176        C  0.54409356  0.46423129  0.80597212     0.92530
C177        C  0.54277623  0.54436539  0.80597319     0.84670
C178        C  0.46357091  0.46288919  0.80625744     0.90940
N179        N  0.33205913  0.33121372  0.80807102    -0.27160
N180        N  0.34560603  0.34517156  0.78704018    -0.35010
C181        C  0.33568785  0.33566818  0.76150311     0.01180
C182        C  0.31509193  0.31492593  0.76658379     0.07210
C183        C  0.31322661  0.31253294  0.79621024    -0.05890
H184        H  0.34297760  0.34333905  0.74069411     0.07880
H185        H  0.29923782  0.29832102  0.80828831     0.09080
Cu186      Cu  0.37722396  0.37682745  0.79129275     0.44170
Cu187      Cu  0.33835716  0.33703149  0.85236036     0.41990
Cu188      Cu  0.39026111  0.39014967  0.86465096     0.43880
N189        N  0.40765429  0.40705457  0.80442169    -0.34540
N190        N  0.41175304  0.41114334  0.83230401    -0.28800
C191        C  0.43195644  0.43116969  0.83628072    -0.04900
C192        C  0.44139955  0.44052444  0.80968145     0.07320
C193        C  0.42553166  0.42479948  0.78964370     0.01120
H194        H  0.43920126  0.43848585  0.85725807     0.08770
H195        H  0.42681676  0.42615638  0.76636173     0.07850
N196        N  0.36926102  0.36994252  0.89783947    -0.35990
N197        N  0.34978849  0.34961207  0.89405486    -0.28170
C198        C  0.34001350  0.34119866  0.92019864    -0.03410
C199        C  0.35408631  0.35737432  0.94124565     0.05200
C200        C  0.37243497  0.37526036  0.92606756     0.03290
H201        H  0.32339590  0.32521353  0.92352114     0.08400
H202        H  0.38711896  0.39110352  0.93486640     0.07230
N203        N  0.33194783  0.67574524  0.80814732    -0.27160
N204        N  0.34551964  0.66171809  0.78713591    -0.35010
C205        C  0.33577175  0.67122494  0.76156614     0.01180
C206        C  0.31526583  0.69206897  0.76656619     0.07210
C207        C  0.31328734  0.69451742  0.79620919    -0.05890
H208        H  0.34310806  0.66346946  0.74078225     0.07880
H209        H  0.29931049  0.70880835  0.80824080     0.09080
Cu210      Cu  0.37682409  0.62980725  0.79137440     0.44170
Cu211      Cu  0.33800970  0.66981787  0.85252882     0.41990
Cu212      Cu  0.38745136  0.61436196  0.86454581     0.43880
N213        N  0.40613262  0.59853254  0.80439366    -0.34540
N214        N  0.40909496  0.59340040  0.83222968    -0.28800
C215        C  0.42900918  0.57311175  0.83619645    -0.04900
C216        C  0.43945735  0.56469271  0.80963318     0.07320
C217        C  0.42447040  0.58122174  0.78962838     0.01120
H218        H  0.43565237  0.56526182  0.85715416     0.08770
H219        H  0.42689404  0.58093494  0.76639634     0.07850
N220        N  0.36853896  0.63642325  0.89785959    -0.35990
N221        N  0.34981152  0.65744535  0.89423600    -0.28170
C222        C  0.34228873  0.66777245  0.92048300    -0.03410
C223        C  0.35736612  0.65241025  0.94142359     0.05200
C224        C  0.37366699  0.63275305  0.92604530     0.03290
H225        H  0.32768093  0.68558359  0.92394191     0.08400
H226        H  0.38836254  0.61686368  0.93466635     0.07230
N227        N  0.67021857  0.32766654  0.80769287    -0.27160
N228        N  0.65715065  0.34202468  0.78665115    -0.35010
C229        C  0.66758080  0.33297964  0.76114251     0.01180
C230        C  0.68799675  0.31208433  0.76623123     0.07210
C231        C  0.68926527  0.30918155  0.79585432    -0.05890
H232        H  0.66108558  0.34138869  0.74036635     0.07880
H233        H  0.70330498  0.29506363  0.80795716     0.09080
Cu234      Cu  0.62653875  0.37461591  0.79089736     0.44170
Cu235      Cu  0.66381809  0.33359645  0.85200187     0.41990
Cu236      Cu  0.61916835  0.39311225  0.86387264     0.43880
N237        N  0.59909066  0.40759667  0.80390053    -0.34540
N238        N  0.59747280  0.41397916  0.83161049    -0.28800
C239        C  0.57835239  0.43503349  0.83560269    -0.04900
C240        C  0.56700950  0.44262791  0.80919479     0.07320
C241        C  0.58066501  0.42484250  0.78924897     0.01120
H242        H  0.57263603  0.44376814  0.85651636     0.08770
H243        H  0.57706683  0.42404568  0.76618481     0.07850
N244        N  0.63768650  0.37084966  0.89719227    -0.35990
N245        N  0.65418050  0.34800582  0.89361078    -0.28170
C246        C  0.66253773  0.33850303  0.91986649    -0.03410
C247        C  0.65087234  0.35670110  0.94071747     0.05200
C248        C  0.63505862  0.37669828  0.92537718     0.03290
H249        H  0.67647065  0.32019105  0.92348730     0.08400
H250        H  0.62220333  0.39413864  0.93399146     0.07230
N251        N  0.67682789  0.67348963  0.80734853    -0.27160
N252        N  0.66166774  0.66113071  0.78638559    -0.35010
C253        C  0.67029249  0.67189224  0.76088908     0.01180
C254        C  0.69176669  0.69175839  0.76590002     0.07210
C255        C  0.69553492  0.69225821  0.79545453    -0.05890
H256        H  0.66166965  0.66551780  0.74013880     0.07880
H257        H  0.71067228  0.70532772  0.80746627     0.09080
Cu258      Cu  0.62967841  0.62983513  0.79064377     0.44170
Cu259      Cu  0.67230209  0.66602637  0.85166762     0.41990
Cu260      Cu  0.61688096  0.61669021  0.86397618     0.43880
N261        N  0.59890717  0.59999295  0.80384140    -0.34540
N262        N  0.59482834  0.59606685  0.83173970    -0.28800
C263        C  0.57448343  0.57621526  0.83581222    -0.04900
C264        C  0.56494059  0.56677237  0.80925969     0.07320
C265        C  0.58088058  0.58229318  0.78914600     0.01120
H266        H  0.56730596  0.56897977  0.85682547     0.08770
H267        H  0.57961042  0.58076039  0.76587105     0.07850
N268        N  0.63863135  0.63609186  0.89718858    -0.35990
N269        N  0.65987786  0.65456453  0.89344884    -0.28170
C270        C  0.66898738  0.66361514  0.91965575    -0.03410
C271        C  0.65229695  0.65013176  0.94067194     0.05200
C272        C  0.63341645  0.63285152  0.92541620     0.03290
H273        H  0.68573366  0.67945777  0.92307539     0.08400
H274        H  0.61686771  0.61894870  0.93415485     0.07230
O275        O  0.53227440  0.17719334  0.53407773    -0.72810
O276        O  0.47483977  0.17772171  0.47220330    -0.73790
O277        O  0.53447451  0.17738597  0.47430118    -0.62410
O278        O  0.47280409  0.17760958  0.53198514    -0.70820
O279        O  0.47199264  0.22535295  0.53396509    -0.70370
O280        O  0.53572378  0.22512501  0.47260589    -0.61630
O281        O  0.47318886  0.22546672  0.47133204    -0.74130
O282        O  0.53437977  0.22492901  0.53519607    -0.72910
Cu283      Cu  0.50358298  0.17616320  0.50310360     1.04560
Cu284      Cu  0.50383065  0.22724761  0.50325581     1.04330
C285        C  0.54255412  0.20031209  0.54464565     0.93390
C286        C  0.46462112  0.20094889  0.46189124     0.92530
C287        C  0.54505915  0.20053523  0.46415359     0.84670
C288        C  0.46264634  0.20081546  0.54249159     0.90940
N289        N  0.32928899  0.19864322  0.33397207    -0.27160
N290        N  0.34373716  0.21967179  0.34701142    -0.35010
C291        C  0.33455759  0.24509655  0.33673915     0.01180
C292        C  0.31346817  0.23999023  0.31647334     0.07210
C293        C  0.31055093  0.21043239  0.31515506    -0.05890
H294        H  0.34280118  0.26585169  0.34345613     0.07880
H295        H  0.29611562  0.19834884  0.30136918     0.09080
Cu296      Cu  0.37609549  0.21570635  0.37796335     0.44170
Cu297      Cu  0.33505116  0.15440944  0.34042305     0.41990
Cu298      Cu  0.39209780  0.14284744  0.38812637     0.43880
N299        N  0.40817828  0.20287483  0.40652392    -0.34540
N300        N  0.41355322  0.17512740  0.40921887    -0.28800
C301        C  0.43435468  0.17118595  0.42863405    -0.04900
C302        C  0.44283678  0.19766814  0.43908616     0.07320
C303        C  0.42581199  0.21761010  0.42459428     0.01120
H304        H  0.44239024  0.15028051  0.43507395     0.08770
H305        H  0.42589649  0.24075991  0.42727048     0.07850
N306        N  0.37050827  0.10945075  0.36896610    -0.35990
N307        N  0.34870339  0.11289588  0.35107551    -0.28170
C308        C  0.33964224  0.08662477  0.34233176    -0.03410
C309        C  0.35704726  0.06590232  0.35524666     0.05200
C310        C  0.37609054  0.08136254  0.37217247     0.03290
H311        H  0.32218870  0.08289895  0.32731240     0.08400
H312        H  0.39272776  0.07292051  0.38613524     0.07230
N313        N  0.67549464  0.19797294  0.33113171    -0.27160
N314        N  0.66240796  0.21897279  0.34558030    -0.35010
C315        C  0.67251450  0.24441785  0.33627931     0.01180
C316        C  0.69274286  0.23935729  0.31512654     0.07210
C317        C  0.69413643  0.20980293  0.31221395    -0.05890
H318        H  0.66544488  0.26517323  0.34422689     0.07880
H319        H  0.70762902  0.19776312  0.29745695     0.09080
Cu320      Cu  0.63103728  0.21499019  0.37753687     0.44170
Cu321      Cu  0.66880769  0.15377826  0.33673781     0.41990
Cu322      Cu  0.62084437  0.14222484  0.39381344     0.43880
N323        N  0.60174994  0.20223164  0.40900414    -0.34540
N324        N  0.59902649  0.17451512  0.41452592    -0.28800
C325        C  0.57898682  0.17062755  0.43477031    -0.04900
C326        C  0.56821107  0.19712333  0.44275695     0.07320
C327        C  0.58313706  0.21700773  0.42602052     0.01120
H328        H  0.57241902  0.14975855  0.44281694     0.08770
H329        H  0.58043217  0.24014810  0.42590822     0.07850
N330        N  0.63879446  0.10886060  0.37112650    -0.35990
N331        N  0.65682693  0.11232898  0.34940367    -0.28170
C332        C  0.66368108  0.08610088  0.33874538    -0.03410
C333        C  0.64872140  0.06539021  0.35446472     0.05200
C334        C  0.63347243  0.08079223  0.37494239     0.03290
H335        H  0.67788019  0.08240942  0.32058380     0.08400
H336        H  0.61954129  0.07235145  0.39162305     0.07230
N337        N  0.33091843  0.19875787  0.67422543    -0.27160
N338        N  0.34472742  0.21977610  0.66054710    -0.35010
C339        C  0.33505031  0.24522791  0.67036404     0.01180
C340        C  0.31433401  0.24012795  0.69102008     0.07210
C341        C  0.31214987  0.21056419  0.69304708    -0.05890
H342        H  0.34263650  0.26599801  0.66300727     0.07880
H343        H  0.29807806  0.19849450  0.70719403     0.09080
Cu344      Cu  0.37649442  0.21575732  0.62895643     0.44170
Cu345      Cu  0.33716334  0.15455091  0.66825568     0.41990
Cu346      Cu  0.39038775  0.14275220  0.61638000     0.43880
N347        N  0.40683190  0.20278836  0.59853982    -0.34540
N348        N  0.41108314  0.17498182  0.59460686    -0.28800
C349        C  0.43109085  0.17098542  0.57435632    -0.04900
C350        C  0.44027392  0.19749753  0.56470122     0.07320
C351        C  0.42447620  0.21751384  0.58050543     0.01120
H352        H  0.43853276  0.15005042  0.56725023     0.08770
H353        H  0.42570946  0.24073427  0.57906857     0.07850
N354        N  0.37074994  0.10947876  0.63759158    -0.35990
N355        N  0.35038072  0.11303746  0.65711551    -0.28170
C356        C  0.34227873  0.08685574  0.66689250    -0.03410
C357        C  0.35885094  0.06608728  0.65293478     0.05200
C358        C  0.37638473  0.08139479  0.63435931     0.03290
H359        H  0.32603895  0.08322891  0.68325101     0.08400
H360        H  0.39194827  0.07285988  0.61922484     0.07230
N361        N  0.68015633  0.19839326  0.66946146    -0.27160
N362        N  0.66473866  0.21928723  0.65749475    -0.35010
C363        C  0.67295380  0.24464111  0.66877819     0.01180
C364        C  0.69445866  0.23961689  0.68859871     0.07210
C365        C  0.69862633  0.21018040  0.68858817    -0.05890
H366        H  0.66369324  0.26526300  0.66314633     0.07880
H367        H  0.71356669  0.19815506  0.70182636     0.09080
Cu368      Cu  0.63197656  0.21484890  0.62716810     0.44170
Cu369      Cu  0.67518795  0.15435056  0.66154887     0.41990
Cu370      Cu  0.61268644  0.14194015  0.62055349     0.43880
N371        N  0.59872272  0.20188098  0.60013917    -0.34540
N372        N  0.59189248  0.17432958  0.59883556    -0.28800
C373        C  0.57083572  0.17052564  0.57961629    -0.04900
C374        C  0.56375492  0.19688864  0.56793529     0.07320
C375        C  0.58180501  0.21659543  0.58147235     0.01120
H376        H  0.56186407  0.14975591  0.57394130     0.08770
H377        H  0.58311079  0.23951756  0.57752865     0.07850
N378        N  0.63669275  0.10892541  0.63752657    -0.35990
N379        N  0.66078813  0.11281830  0.65211863    -0.28170
C380        C  0.67141807  0.08679540  0.65957658    -0.03410
C381        C  0.65277446  0.06572457  0.64922106     0.05200
C382        C  0.63108873  0.08069833  0.63540634     0.03290
H383        H  0.69065392  0.08353179  0.67232626     0.08400
H384        H  0.61252275  0.07172782  0.62449717     0.07230
O385        O  0.53269224  0.83022790  0.53364244    -0.72810
O386        O  0.47402255  0.83005430  0.47294145    -0.73790
O387        O  0.47317891  0.83020657  0.53279766    -0.62410
O388        O  0.53365159  0.83001332  0.47379928    -0.70820
O389        O  0.53475201  0.78226350  0.47220088    -0.70370
O390        O  0.47192841  0.78246391  0.53447149    -0.61630
O391        O  0.47227097  0.78230982  0.47183646    -0.74130
O392        O  0.53427375  0.78248284  0.53489611    -0.72910
Cu393      Cu  0.50338728  0.83144284  0.50327036     1.04560
Cu394      Cu  0.50331072  0.78035454  0.50333139     1.04330
C395        C  0.54283486  0.80706805  0.54416943     0.93390
C396        C  0.46363730  0.80685907  0.46263514     0.92530
C397        C  0.46297011  0.80705325  0.54331791     0.84670
C398        C  0.54391664  0.80678857  0.46343654     0.90940
N399        N  0.32765949  0.80844980  0.33545616    -0.27160
N400        N  0.34241710  0.78757465  0.34829868    -0.35010
C401        C  0.33368672  0.76207913  0.33773604     0.01180
C402        C  0.31257261  0.76697497  0.31746935     0.07210
C403        C  0.30916242  0.79648835  0.31645921    -0.05890
H404        H  0.34228101  0.74142195  0.34422814     0.07880
H405        H  0.29458785  0.80842755  0.30274211     0.09080
Cu406      Cu  0.37472317  0.79188397  0.37922893     0.44170
Cu407      Cu  0.33288284  0.85268976  0.34236762     0.41990
Cu408      Cu  0.39079291  0.86484355  0.38917329     0.43880
N409        N  0.40687821  0.80489869  0.40763055    -0.34540
N410        N  0.41229214  0.83265585  0.41029642    -0.28800
C411        C  0.43316339  0.83664146  0.42965423    -0.04900
C412        C  0.44164850  0.81017468  0.44005674     0.07320
C413        C  0.42456150  0.79020634  0.42561661     0.00940
H414        H  0.44128526  0.85755385  0.43604726     0.08770
H415        H  0.42466372  0.76705935  0.42824306     0.07850
N416        N  0.36859632  0.89798124  0.37032685    -0.35990
N417        N  0.34638931  0.89429506  0.35296666    -0.28170
C418        C  0.33704111  0.92044057  0.34425496    -0.03410
C419        C  0.35456723  0.94136253  0.35677348     0.05200
C420        C  0.37419908  0.92612146  0.37315086     0.03290
H421        H  0.31950329  0.92387480  0.32928617     0.08400
H422        H  0.39146623  0.93481599  0.38621096     0.07230
N423        N  0.67464959  0.80774856  0.33061693    -0.27160
N424        N  0.66052375  0.78690120  0.34423148    -0.35010
C425        C  0.67013925  0.76132298  0.33467582     0.01180
C426        C  0.69114261  0.76615159  0.31424262     0.07210
C427        C  0.69359281  0.79569807  0.31212201    -0.05890
H428        H  0.66252147  0.74065002  0.34226975     0.07880
H429        H  0.70814143  0.80758783  0.29830945     0.09080
Cu430      Cu  0.62893205  0.79135773  0.37594570     0.44170
Cu431      Cu  0.66898432  0.85204606  0.33673161     0.41990
Cu432      Cu  0.61776020  0.86446926  0.39063691     0.43880
N433        N  0.59947779  0.80456966  0.40713360    -0.34540
N434        N  0.59624611  0.83238686  0.41190607    -0.28800
C435        C  0.57646673  0.83648662  0.43237722    -0.04900
C436        C  0.56639616  0.81003301  0.44130671     0.07320
C437        C  0.58144294  0.78995202  0.42486321     0.01120
H438        H  0.56974313  0.85745186  0.44008953     0.08770
H439        H  0.57934899  0.76675837  0.42557532     0.07850
N440        N  0.63751218  0.89751765  0.36910483    -0.35990
N441        N  0.65700850  0.89373117  0.34874410    -0.28170
C442        C  0.66509315  0.91983023  0.33870474    -0.03410
C443        C  0.64957904  0.94084418  0.35355653     0.05200
C444        C  0.63243507  0.92567179  0.37262461     0.03290
H445        H  0.68039179  0.92314422  0.32140962     0.08400
H446        H  0.61722362  0.93441491  0.38802285     0.07230
N447        N  0.33043331  0.80884860  0.67419025    -0.27160
N448        N  0.34495265  0.78791733  0.66108744    -0.35010
C449        C  0.33590267  0.76244060  0.67135146     0.01180
C450        C  0.31485882  0.76743517  0.69170980     0.07210
C451        C  0.31176553  0.79696137  0.69303209    -0.05890
H452        H  0.34401021  0.74172028  0.66437226     0.07880
H453        H  0.29710254  0.80894976  0.70666517     0.09080
Cu454      Cu  0.37674403  0.79212736  0.62958317     0.44170
Cu455      Cu  0.33575349  0.85303699  0.66748627     0.41990
Cu456      Cu  0.39134045  0.86517269  0.61806281     0.43880
N457        N  0.40746603  0.80517366  0.59964538    -0.34540
N458        N  0.41215988  0.83297058  0.59622937    -0.28800
C459        C  0.43224101  0.83695774  0.57604742    -0.04900
C460        C  0.44097937  0.81044726  0.56590182     0.07320
C461        C  0.42486951  0.79045095  0.58134832     0.01120
H462        H  0.43988232  0.85787988  0.56917086     0.08770
H463        H  0.42561521  0.76724365  0.57938046     0.07850
N464        N  0.37022211  0.89830413  0.63817950    -0.35990
N465        N  0.34886734  0.89460457  0.65658270    -0.28170
C466        C  0.33997153  0.92072446  0.66588962    -0.03410
C467        C  0.35690441  0.94164959  0.65264112     0.05200
C468        C  0.37572942  0.92643864  0.63524893     0.03290
H469        H  0.32314122  0.92411748  0.68168560     0.08400
H470        H  0.39233570  0.93515342  0.62137596     0.07230
N471        N  0.67794226  0.80873368  0.67189313    -0.27160
N472        N  0.66204726  0.78788631  0.66037076    -0.35010
C473        C  0.67017916  0.76255247  0.67168934     0.01180
C474        C  0.69213201  0.76752933  0.69104631     0.07210
C475        C  0.69673098  0.79690316  0.69062742    -0.05890
H476        H  0.66095562  0.74191509  0.66596421     0.07880
H477        H  0.71242336  0.80883553  0.70310176     0.09080
Cu478      Cu  0.62970184  0.79211960  0.62952935     0.44170
Cu479      Cu  0.67367843  0.85282285  0.66370890     0.41990
Cu480      Cu  0.61316468  0.86514299  0.62026355     0.43880
N481        N  0.59804919  0.80519826  0.60068873    -0.34540
N482        N  0.59240820  0.83292532  0.59828027    -0.28800
C483        C  0.57211746  0.83689306  0.57831744    -0.04900
C484        C  0.56425768  0.81044519  0.56728001     0.07320
C485        C  0.58107853  0.79051212  0.58197559     0.01120
H486        H  0.56396788  0.85777988  0.57196185     0.08770
H487        H  0.58131044  0.76739690  0.57901870     0.07850
N488        N  0.63624375  0.89820143  0.63834806    -0.35990
N489        N  0.65967661  0.89442954  0.65399037    -0.28170
C490        C  0.66983417  0.92053799  0.66195860    -0.03410
C491        C  0.65142867  0.94146492  0.65099393     0.05200
C492        C  0.63058928  0.92637642  0.63601713     0.03290
H493        H  0.68866707  0.92400898  0.67526817     0.08400
H494        H  0.61267893  0.93520206  0.62399397     0.07230
C495        C  0.70762572  0.74391355  0.29896970     0.03260
C496        C  0.69607567  0.73103327  0.27415500    -0.12890
C497        C  0.70898795  0.70640530  0.26233261     0.00760
C498        C  0.73364274  0.69478392  0.27528739    -0.11410
C499        C  0.74519656  0.70750339  0.30017623     0.03260
C500        C  0.73221491  0.73212466  0.31191792    -0.10830
H501        H  0.67610321  0.73909409  0.26511993     0.08850
H502        H  0.74268001  0.67482657  0.26714272     0.06380
H503        H  0.74019159  0.74105333  0.33203294     0.06230
O504        O  0.17674758  0.53336586  0.47427071    -0.72810
O505        O  0.17736131  0.47264422  0.53266889    -0.73790
O506        O  0.17744416  0.53209186  0.53412695    -0.62410
O507        O  0.17678228  0.47371480  0.47298225    -0.70820
O508        O  0.22452773  0.47205289  0.47132378    -0.70370
O509        O  0.22521473  0.53373970  0.53476180    -0.61630
O510        O  0.22512518  0.47136669  0.53392964    -0.74130
O511        O  0.22448187  0.53451978  0.47202610    -0.72910
Cu512      Cu  0.17577369  0.50298170  0.50349648     1.04560
Cu513      Cu  0.22687091  0.50294786  0.50295944     1.04330
C514        C  0.19981045  0.54367365  0.46363854     0.93390
C515        C  0.20059416  0.46229566  0.54283748     0.92530
C516        C  0.20075856  0.54213600  0.54449599     0.84670
C517        C  0.19987137  0.46330251  0.46246287     0.90940
N518        N  0.19759247  0.33308737  0.32908947    -0.27160
N519        N  0.21853487  0.34635026  0.34344435    -0.35010
C520        C  0.24402405  0.33607060  0.33439310     0.01180
C521        C  0.23904311  0.31552782  0.31351722     0.07210
C522        C  0.20949443  0.31407463  0.31056102    -0.05890
H523        H  0.26474297  0.34303601  0.34251603     0.07880
H524        H  0.19750114  0.30017440  0.29615415     0.09080
Cu525      Cu  0.21434598  0.37782460  0.37529360     0.44170
Cu526      Cu  0.15337415  0.33980009  0.33455628     0.41990
Cu527      Cu  0.14134810  0.38950916  0.39011178     0.43880
N528        N  0.20143301  0.40758014  0.40629152    -0.34540
N529        N  0.17364690  0.41108463  0.41106971    -0.28800
C530        C  0.16976511  0.43107462  0.43139083    -0.04900
C531        C  0.19633665  0.44099027  0.44020034     0.07320
C532        C  0.21625358  0.42561806  0.42387276     0.01120
H533        H  0.14887655  0.43796242  0.43916516     0.08770
H534        H  0.23947657  0.42743975  0.42461543     0.07850
N535        N  0.10816102  0.36943687  0.36900677    -0.35990
N536        N  0.11181008  0.35093528  0.34769121    -0.28170
C537        C  0.08564810  0.34170531  0.33883424    -0.03410
C538        C  0.06475214  0.35509102  0.35575634     0.05200
C539        C  0.08002389  0.37249456  0.37452827     0.03290
H540        H  0.08218672  0.32587774  0.32203024     0.08400
H541        H  0.07135227  0.38645898  0.39111434     0.07230
N542        N  0.19832354  0.67314846  0.33026649    -0.27160
N543        N  0.21924538  0.65914360  0.34382271    -0.35010
C544        C  0.24477039  0.66887939  0.33425537     0.01180
C545        C  0.23978235  0.68987598  0.31387866     0.07210
C546        C  0.21021500  0.69219514  0.31183378    -0.05890
H547        H  0.26550038  0.66143871  0.34187424     0.07880
H548        H  0.19820939  0.70674329  0.29815058     0.09080
Cu549      Cu  0.21445675  0.62783970  0.37564384     0.44170
Cu550      Cu  0.15423147  0.66702968  0.33671049     0.41990
Cu551      Cu  0.14057282  0.61725914  0.39186757     0.43880
N552        N  0.20109145  0.59892957  0.40717794    -0.34540
N553        N  0.17332324  0.59589120  0.41250494    -0.28800
C554        C  0.16958370  0.57628049  0.43317206    -0.04900
C555        C  0.19618473  0.56615405  0.44162595     0.07320
C556        C  0.21597987  0.58096885  0.42471152     0.01120
H557        H  0.14875027  0.56966666  0.44131643     0.08770
H558        H  0.23917560  0.57872620  0.42492629     0.07850
N559        N  0.10784773  0.63767781  0.37021318    -0.35990
N560        N  0.11242985  0.65617020  0.34908112    -0.28170
C561        C  0.08675025  0.66534050  0.33902158    -0.03410
C562        C  0.06527875  0.65189516  0.35486988     0.05200
C563        C  0.07940633  0.63459401  0.37442106     0.03290
H564        H  0.08392670  0.68069875  0.32171382     0.08400
H565        H  0.06974376  0.62067415  0.39044803     0.07230
N566        N  0.19800072  0.33220913  0.67588109    -0.27160
N567        N  0.21903148  0.34554149  0.66173098    -0.35010
C568        C  0.24448250  0.33558491  0.67117722     0.01180
C569        C  0.23939667  0.31519188  0.69210330     0.07210
C570        C  0.20982240  0.31347543  0.69467098    -0.05890
H571        H  0.26525041  0.34270952  0.66332345     0.07880
H572        H  0.19776008  0.29963025  0.70904162     0.09080
Cu573      Cu  0.21516005  0.37685741  0.62980459     0.44170
Cu574      Cu  0.15375809  0.33861238  0.67008221     0.41990
Cu575      Cu  0.14226340  0.38999143  0.61642183     0.43880
N576        N  0.20239424  0.40673523  0.59900108    -0.34540
N577        N  0.17459635  0.41072722  0.59478188    -0.28800
C578        C  0.17068634  0.43056711  0.57441422    -0.04900
C579        C  0.19724907  0.43993134  0.56500230     0.07320
C580        C  0.21720679  0.42437930  0.58104307     0.01120
H581        H  0.14976949  0.43780641  0.56709236     0.08770
H582        H  0.24043867  0.42583960  0.57988250     0.07850
N583        N  0.10882120  0.36971356  0.63681251    -0.35990
N584        N  0.11225021  0.35028867  0.65725048    -0.28170
C585        C  0.08596940  0.34093638  0.66561827    -0.03410
C586        C  0.06526091  0.35508341  0.64916634     0.05200
C587        C  0.08073340  0.37332636  0.63142775     0.03290
H588        H  0.08223069  0.32467869  0.68190180     0.08400
H589        H  0.07230633  0.38838997  0.61577617     0.07230
N590        N  0.19890988  0.67607781  0.67382001    -0.27160
N591        N  0.21997724  0.66193794  0.66052446    -0.35010
C592        C  0.24539140  0.67134082  0.67069000     0.01180
C593        C  0.24021181  0.69222498  0.69118425     0.07210
C594        C  0.21063889  0.69484412  0.69269443    -0.05890
H595        H  0.26618836  0.66346369  0.66367418     0.07880
H596        H  0.19851064  0.70917919  0.70655350     0.09080
Cu597      Cu  0.21596155  0.62974865  0.62935406     0.44170
Cu598      Cu  0.15475473  0.66992374  0.66746669     0.41990
Cu599      Cu  0.14344322  0.60987512  0.62329788     0.43880
N600        N  0.20309377  0.59715400  0.60133003    -0.34540
N601        N  0.17556912  0.59018889  0.60029014    -0.28800
C602        C  0.17152549  0.56972863  0.58048103    -0.04900
C603        C  0.19770781  0.56309906  0.56811184     0.07320
C604        C  0.21758810  0.58083023  0.58187822     0.01120
H605        H  0.15070610  0.56074313  0.57502096     0.08770
H606        H  0.24046924  0.58224617  0.57766026     0.07850
N607        N  0.10995511  0.63304105  0.64035208    -0.35990
N608        N  0.11336749  0.65603955  0.65672678    -0.28170
C609        C  0.08711418  0.66698584  0.66290799    -0.03410
C610        C  0.06642195  0.65008356  0.64924150     0.05200
C611        C  0.08187761  0.62864616  0.63546666     0.03290
H612        H  0.08339595  0.68613937  0.67570579     0.08400
H613        H  0.07349352  0.61099827  0.62274367     0.07230
O614        O  0.78244443  0.53560188  0.47347365    -0.72810
O615        O  0.78142648  0.47234947  0.53530118    -0.73790
O616        O  0.78211591  0.53475579  0.53609926    -0.62410
O617        O  0.78157684  0.47310136  0.47262435    -0.70820
O618        O  0.82934443  0.47419192  0.47394280    -0.70370
O619        O  0.82985971  0.53258008  0.53510343    -0.61630
O620        O  0.82918995  0.47304006  0.53365471    -0.74130
O621        O  0.83017549  0.53383461  0.47527888    -0.72910
Cu622      Cu  0.77985990  0.50398340  0.50434911     1.04560
Cu623      Cu  0.83095385  0.50340623  0.50448124     1.04330
C624        C  0.80716973  0.54450405  0.46492465     0.93390
C625        C  0.80589779  0.46294912  0.54399309     0.92530
C626        C  0.80673251  0.54300808  0.54552771     0.84670
C627        C  0.80606392  0.46411365  0.46352308     0.90940
N628        N  0.80726624  0.33340963  0.33054858    -0.27160
N629        N  0.78627698  0.34722886  0.34431795    -0.35010
C630        C  0.76078146  0.33735484  0.33477838     0.01180
C631        C  0.76582322  0.31648619  0.31422171     0.07210
C632        C  0.79539893  0.31441410  0.31199373    -0.05890
H633        H  0.74002556  0.34474424  0.34242190     0.07880
H634        H  0.80743925  0.30010130  0.29803440     0.09080
Cu635      Cu  0.79047456  0.37884703  0.37612163     0.44170
Cu636      Cu  0.85155647  0.33936680  0.33656062     0.41990
Cu637      Cu  0.86362979  0.39064916  0.39025555     0.43880
N638        N  0.80367913  0.40870593  0.40698788    -0.34540
N639        N  0.83151858  0.41224944  0.41139741    -0.28800
C640        C  0.83566057  0.43212409  0.43176663    -0.04900
C641        C  0.80921890  0.44196179  0.44102248     0.07320
C642        C  0.78908652  0.42665280  0.42487851     0.01120
H643        H  0.85665166  0.43893622  0.43931921     0.08770
H644        H  0.76587421  0.42840647  0.42600598     0.07850
N645        N  0.89685041  0.36974572  0.37011657    -0.35990
N646        N  0.89320822  0.35041829  0.34955945    -0.28170
C647        C  0.91938173  0.34074137  0.34120966    -0.03410
C648        C  0.94023053  0.35456279  0.35781656     0.05200
C649        C  0.92496778  0.37295032  0.37562724     0.03290
H650        H  0.92294889  0.32451115  0.32481061     0.08400
H651        H  0.93357499  0.38787778  0.39136750     0.07230
N652        N  0.80873833  0.67526597  0.33285243    -0.27160
N653        N  0.78782887  0.66220879  0.34737840    -0.35010
C654        C  0.76231025  0.67209275  0.33799437     0.01180
C655        C  0.76729924  0.69216819  0.31669716     0.07210
C656        C  0.79685042  0.69370274  0.31383128    -0.05890
H657        H  0.74158174  0.66495547  0.34593881     0.07880
H658        H  0.80884585  0.70709915  0.29898423     0.09080
Cu659      Cu  0.79265200  0.63098385  0.37925053     0.44170
Cu660      Cu  0.85280406  0.66841759  0.33849535     0.41990
Cu661      Cu  0.86663738  0.61838122  0.39341616     0.43880
N662        N  0.80605289  0.60095654  0.40966563    -0.34540
N663        N  0.83385284  0.59710498  0.41420645    -0.28800
C664        C  0.83756212  0.57684970  0.43424607    -0.04900
C665        C  0.81090709  0.56715148  0.44309282     0.07320
C666        C  0.79111841  0.58289425  0.42707744     0.01120
H667        H  0.85839752  0.56958580  0.44177023     0.08770
H668        H  0.76788116  0.58128592  0.42788579     0.07850
N669        N  0.89928707  0.63868928  0.37143790    -0.35990
N670        N  0.89462414  0.65725169  0.35039143    -0.28170
C671        C  0.92025977  0.66632643  0.34008933    -0.03410
C672        C  0.94179701  0.65273906  0.35567819     0.05200
C673        C  0.92774931  0.63545780  0.37533708     0.03290
H674        H  0.92300693  0.68174080  0.32281489     0.08400
H675        H  0.93748305  0.62147082  0.39124534     0.07230
N676        N  0.80782175  0.33454839  0.67870575    -0.27160
N677        N  0.78681808  0.34821022  0.66487564    -0.35010
C678        C  0.76135292  0.33807031  0.67415329     0.01180
C679        C  0.76641921  0.31720341  0.69461832     0.07210
C680        C  0.79598872  0.31534787  0.69702358    -0.05890
H681        H  0.74060150  0.34509152  0.66619873     0.07880
H682        H  0.80804708  0.30091933  0.71078698     0.09080
Cu683      Cu  0.79087193  0.37943287  0.63282406     0.44170
Cu684      Cu  0.85204982  0.34077570  0.67276614     0.41990
Cu685      Cu  0.86387135  0.38977508  0.61695103     0.43880
N686        N  0.80381302  0.40804323  0.60082910    -0.34540
N687        N  0.83159064  0.41086370  0.59557088    -0.28800
C688        C  0.83557781  0.43019446  0.57471425    -0.04900
C689        C  0.80909947  0.44044458  0.56605485     0.07320
C690        C  0.78910700  0.42593434  0.58304920     0.01120
H691        H  0.85650975  0.43663488  0.56668257     0.08770
H692        H  0.76593583  0.42840795  0.58278291     0.07850
N693        N  0.89719292  0.37018130  0.63820154    -0.35990
N694        N  0.89361221  0.35179016  0.65955914    -0.28170
C695        C  0.91980416  0.34267496  0.66839981    -0.03410
C696        C  0.94066324  0.35604347  0.65143531     0.05200
C697        C  0.92531581  0.37331958  0.63265923     0.03290
H698        H  0.92330323  0.32692634  0.68521612     0.08400
H699        H  0.93391509  0.38721725  0.61602012     0.07230
N700        N  0.80922587  0.67707911  0.67492983    -0.27160
N701        N  0.78824208  0.66312320  0.66131699    -0.35010
C702        C  0.76276727  0.67270623  0.67113000     0.01180
C703        C  0.76780676  0.69351980  0.69171983     0.07210
C704        C  0.79737215  0.69589187  0.69369117    -0.05890
H705        H  0.74201473  0.66495297  0.66385219     0.07880
H706        H  0.80940568  0.71007194  0.70778692     0.09080
Cu707      Cu  0.79233437  0.63095099  0.63016240     0.44170
Cu708      Cu  0.85340034  0.67070192  0.66900265     0.41990
Cu709      Cu  0.86496606  0.61277769  0.62195177     0.43880
N710        N  0.80507466  0.59871104  0.60169270    -0.34540
N711        N  0.83271154  0.59245056  0.59971909    -0.28800
C712        C  0.83658052  0.57186346  0.58000040    -0.04900
C713        C  0.81015372  0.56443303  0.56866520     0.07320
C714        C  0.79033274  0.58183833  0.58292552     0.01120
H715        H  0.85740252  0.56324698  0.57398218     0.08770
H716        H  0.76727729  0.58255372  0.57960189     0.07850
N717        N  0.89830875  0.63519503  0.64024341    -0.35990
N718        N  0.89482151  0.65720720  0.65791508    -0.28170
C719        C  0.92104978  0.66768478  0.66498089    -0.03410
C720        C  0.94184583  0.65137030  0.65071597     0.05200
C721        C  0.92641180  0.63101229  0.63535911     0.03290
H722        H  0.92458821  0.68624267  0.67866235     0.08400
H723        H  0.93492945  0.61436112  0.62139572     0.07230
C724        C  0.29935720  0.29847495  0.26224155     0.03260
C725        C  0.31123866  0.27403294  0.27535528    -0.12890
C726        C  0.29814137  0.26199225  0.29979842     0.00760
C727        C  0.27309099  0.27450227  0.31112876    -0.11410
C728        C  0.26122102  0.29904690  0.29818418     0.03260
C729        C  0.27426357  0.31085105  0.27360939    -0.10830
H730        H  0.33151904  0.26541130  0.26757200     0.08850
H731        H  0.26396559  0.26631442  0.33105112     0.06380
H732        H  0.26604571  0.33074020  0.26455191     0.06230
C733        C  0.03465163  0.65360775  0.64882306    -0.05330
C734        C  0.01993971  0.66341168  0.67348656    -0.32760
C735        C  0.98964491  0.66395354  0.67427616     0.36490
C736        C  0.97366717  0.65461267  0.65012497    -0.05690
C737        C  0.98851509  0.64638539  0.62502361    -0.32660
C738        C  0.01857989  0.64571930  0.62422146     0.36400
H739        H  0.03190012  0.66955171  0.69260985     0.16770
O740        O  0.97600496  0.67175691  0.69935026    -0.60160
H741        H  0.97677634  0.64008822  0.60581466     0.16780
O742        O  0.03204566  0.63812572  0.59893057    -0.60250
H743        H  0.02800863  0.61730132  0.59627471     0.43780
H744        H  0.97616360  0.69311478  0.69939781     0.43730
C745        C  0.97245812  0.35252302  0.65140017    -0.05330
C746        C  0.98727106  0.35563735  0.62516078    -0.32760
C747        C  0.01728999  0.35525927  0.62410978     0.36490
C748        C  0.03344013  0.35199548  0.64968523    -0.05690
C749        C  0.01875269  0.34742901  0.67583548    -0.32660
C750        C  0.98845754  0.34783575  0.67685618     0.36400
H751        H  0.97552545  0.35852904  0.60517069     0.16770
O752        O  0.03056513  0.35821363  0.59781026    -0.60160
H753        H  0.03075545  0.34480211  0.69570957     0.16780
O754        O  0.97487135  0.34488584  0.70297300    -0.60250
H755        H  0.97265178  0.36478348  0.71046852     0.43780
H756        H  0.03421649  0.33826935  0.59105479     0.43730
C757        C  0.97322016  0.65573713  0.35281753    -0.05330
C758        C  0.98806822  0.63907848  0.33237986    -0.32760
C759        C  0.01827147  0.63863377  0.33204827     0.36490
C760        C  0.03385110  0.65502344  0.35228821    -0.05690
C761        C  0.01898740  0.67208465  0.37235972    -0.32660
C762        C  0.98882450  0.67256198  0.37266697     0.36400
H763        H  0.97622353  0.62554878  0.31744262     0.16770
O764        O  0.03233791  0.62072980  0.31315477    -0.60160
H765        H  0.03081140  0.68439369  0.38833972     0.16780
O766        O  0.97475857  0.68851620  0.39324638    -0.60250
H767        H  0.97063483  0.70725169  0.38386769     0.43780
H768        H  0.03653619  0.63280314  0.29602060     0.43730
C769        C  0.03297615  0.35153223  0.35570787    -0.05330
C770        C  0.01814413  0.35426763  0.38198240    -0.32760
C771        C  0.98812037  0.35396513  0.38297137     0.36490
C772        C  0.97201045  0.35118252  0.35730469    -0.05690
C773        C  0.98671755  0.34697329  0.33109466    -0.32660
C774        C  0.01701458  0.34729803  0.33013754     0.36400
H775        H  0.02988741  0.35685118  0.40202890     0.16770
O776        O  0.97478986  0.35658292  0.40928693    -0.60160
H777        H  0.97473575  0.34474275  0.31115017     0.16780
O778        O  0.03064994  0.34478491  0.30399179    -0.60250
H779        H  0.03295544  0.36481017  0.29692966     0.43780
H780        H  0.97100222  0.33655483  0.41565597     0.43730
C781        C  0.65273527  0.97318378  0.65415830    -0.05330
C782        C  0.67898478  0.98795617  0.65112183    -0.32760
C783        C  0.67966462  0.01824933  0.65046292     0.36490
C784        C  0.65384189  0.03404915  0.65290941    -0.05690
C785        C  0.62788483  0.01916969  0.65719534    -0.32660
C786        C  0.62720150  0.98914484  0.65802640     0.36400
H787        H  0.69878342  0.97601869  0.64792257     0.16770
O788        O  0.70524997  0.03203538  0.64518156    -0.60160
H789        H  0.60785437  0.03089896  0.65966700     0.16780
O790        O  0.60128086  0.97560461  0.66231364    -0.60250
H791        H  0.60031449  0.97189934  0.68337675     0.43780
H792        H  0.71516994  0.03284414  0.66411911     0.43730
C793        C  0.35681878  0.97340156  0.65627482    -0.05330
C794        C  0.38306622  0.98820740  0.65384069    -0.32760
C795        C  0.38403107  0.01826322  0.65371557     0.36490
C796        C  0.35839586  0.03433467  0.65628872    -0.05690
C797        C  0.33221208  0.01964621  0.66026294    -0.32660
C798        C  0.33128154  0.98935749  0.66024087     0.36400
H799        H  0.40309676  0.97642918  0.65166911     0.16770
O800        O  0.41029937  0.03173734  0.65184890    -0.60160
H801        H  0.31227910  0.03163143  0.66215317     0.16780
O802        O  0.30515127  0.97571358  0.66204422    -0.60250
H803        H  0.30035656  0.97555339  0.68291137     0.43780
H804        H  0.41729823  0.02795456  0.63195299     0.43730
C805        C  0.64847339  0.03363167  0.35083714    -0.05330
C806        C  0.67382037  0.01876682  0.34348469    -0.32760
C807        C  0.67448146  0.98846459  0.34312289     0.36490
C808        C  0.64950132  0.97264614  0.35012377    -0.05690
C809        C  0.62387888  0.98765292  0.35586743    -0.32660
C810        C  0.62320485  0.01771758  0.35639406     0.36400
H811        H  0.69346815  0.03061658  0.33920735     0.16770
O812        O  0.70006098  0.97466886  0.33788666    -0.60160
H813        H  0.60413913  0.97603592  0.36035203     0.16780
O814        O  0.59747305  0.03135229  0.36159001    -0.60250
H815        H  0.59289835  0.02744054  0.38214770     0.43780
H816        H  0.70218522  0.97464293  0.31657893     0.43730
C817        C  0.35621432  0.03407466  0.35226679    -0.05330
C818        C  0.32981794  0.01943880  0.34965665    -0.32760
C819        C  0.32877144  0.98915162  0.35022561     0.36490
C820        C  0.35441465  0.97311864  0.35311412    -0.05690
C821        C  0.38078524  0.98786173  0.35429216    -0.32660
C822        C  0.38187046  0.01786827  0.35371549     0.36400
H823        H  0.30987159  0.03147875  0.34845095     0.16770
O824        O  0.30254464  0.97560419  0.34923581    -0.60160
H825        H  0.40085437  0.97605949  0.35580667     0.16780
O826        O  0.40829009  0.03107843  0.35469050    -0.60250
H827        H  0.41352196  0.03463884  0.33424154     0.43780
H828        H  0.29657005  0.97347556  0.36968739     0.43730
C829        C  0.65101198  0.65390835  0.03365705    -0.05330
C830        C  0.67712214  0.65814796  0.01885417    -0.32760
C831        C  0.67799795  0.65790042  0.98847801     0.36490
C832        C  0.65245422  0.65367113  0.97253403    -0.05690
C833        C  0.62628287  0.65093642  0.98746559    -0.32660
C834        C  0.62536448  0.65119837  0.01755529     0.36400
H835        H  0.69704843  0.66038024  0.03081486     0.16770
O836        O  0.70403331  0.66052196  0.97474418    -0.60160
H837        H  0.60624649  0.64840686  0.97574782     0.16780
O838        O  0.59912157  0.64865464  0.03094482    -0.60250
H839        H  0.59282813  0.66869778  0.03482645     0.43780
H840        H  0.71116853  0.64052568  0.97236418     0.43730
C841        C  0.65398623  0.35575829  0.97256955    -0.05330
C842        C  0.65438086  0.32931188  0.98730048    -0.32760
C843        C  0.65383037  0.32847814  0.01766382     0.36490
C844        C  0.65322693  0.35435857  0.03364607    -0.05690
C845        C  0.65423777  0.38065497  0.01879574    -0.32660
C846        C  0.65477999  0.38152359  0.98870994     0.36400
H847        H  0.65380539  0.30928494  0.97528281     0.16770
O848        O  0.65255849  0.30234603  0.03134511    -0.60160
H849        H  0.65445568  0.40082916  0.03058015     0.16780
O850        O  0.65594128  0.40783982  0.97533868    -0.60250
H851        H  0.67668606  0.41131368  0.97157962     0.43780
H852        H  0.63171666  0.29820702  0.03361918     0.43730
C853        C  0.35909790  0.65507432  0.03448664    -0.05330
C854        C  0.33402460  0.66350341  0.01973696    -0.32760
C855        C  0.33321784  0.66390095  0.98935908     0.36490
C856        C  0.35777387  0.65583509  0.97333071    -0.05690
C857        C  0.38320076  0.64901170  0.98822563    -0.32660
C858        C  0.38401422  0.64846162  0.01836844     0.36400
H859        H  0.31464900  0.66862900  0.03173568     0.16770
O860        O  0.30782518  0.67026031  0.97569414    -0.60160
H861        H  0.40266775  0.64370303  0.97646036     0.16780
O862        O  0.40957653  0.64221256  0.03187568    -0.60250
H863        H  0.41323453  0.62152853  0.02789781     0.43780
H864        H  0.30666914  0.69158649  0.97574731     0.43730
C865        C  0.35074891  0.35867249  0.03418441    -0.05330
C866        C  0.34513344  0.33285886  0.01932156    -0.32760
C867        C  0.34499891  0.33206850  0.98895092     0.36490
C868        C  0.35048220  0.35737879  0.97308432    -0.05690
C869        C  0.35450759  0.38336065  0.98807253    -0.32660
C870        C  0.35477583  0.38417803  0.01821103     0.36400
H871        H  0.34207662  0.31302751  0.03122922     0.16770
O872        O  0.34153724  0.30616621  0.97513834    -0.60160
H873        H  0.35783663  0.40327527  0.97637621     0.16780
O874        O  0.35822798  0.41022119  0.03186457    -0.60250
H875        H  0.37843512  0.41606175  0.02804534     0.43780
H876        H  0.32046140  0.30267272  0.97501548     0.43730
loop_ 
_geom_bond_atom_site_label_1 
_geom_bond_atom_site_label_2 
_geom_bond_distance 
_geom_bond_site_symmetry_2 
_ccdc_geom_bond_type 
C1            C2   1.402       .  A
C1            C6   1.401       .  A
C1          C254   1.467       .  S
C2            C3   1.402       .  A
C2            H7   1.084       .  S
C3            C4   1.401       .  A
C3          C474   1.466       .  S
C4            C5   1.401       .  A
C4            H8   1.084       .  S
C5            C6   1.402       .  A
C5          C703   1.465       .  S
C6            H9   1.084       .  S
C10          C11   1.402       .  A
C10          C15   1.401       .  A
C10          C96   1.466       .  S
C11          C12   1.401       .  A
C11          H16   1.084       .  S
C12          C13   1.401       .  A
C12         C545   1.466       .  S
C13          C14   1.401       .  A
C13          H17   1.084       .  S
C14          C15   1.402       .  A
C14         C402   1.466       .  S
C15          H18   1.084       .  S
C19          C20   1.401       .  A
C19          C24   1.401       .  A
C19         C230   1.466       .  S
C20          C21   1.402       .  A
C20          H25   1.084       .  S
C21          C22   1.401       .  A
C21         C364   1.465       .  S
C22          C23   1.401       .  A
C22          H26   1.084       .  S
C23          C24   1.401       .  A
C23         C679   1.465       .  S
C24          H27   1.084       .  S
C28          C29   1.401       .  A
C28          C33   1.401       .  A
C28         C340   1.465       .  S
C29          C30   1.401       .  A
C29          H34   1.084       .  S
C30          C31   1.401       .  A
C30         C569   1.465       .  S
C31          C32   1.401       .  A
C31          H35   1.084       .  S
C32          C33   1.401       .  A
C32         C182   1.465       .  S
C33          H36   1.084       .  S
C37          C38   1.401       .  A
C37          C42   1.402       .  A
C37         C593   1.465       .  S
C38          C39   1.401       .  A
C38          H43   1.084       .  S
C39          C40   1.402       .  A
C39         C450   1.465       .  S
C40          C41   1.401       .  A
C40          H44   1.084       .  S
C41          C42   1.402       .  A
C41         C206   1.466       .  S
C42          H45   1.084       .  S
C46          C47   1.402       .  A
C46          C51   1.401       .  A
C46         C631   1.467       .  S
C47          C48   1.402       .  A
C47          H52   1.084       .  S
C48          C49   1.401       .  A
C48         C316   1.465       .  S
C49          C50   1.401       .  A
C49          H53   1.084       .  S
C50          C51   1.402       .  A
C50         C120   1.465       .  S
C51          H54   1.084       .  S
O55         Cu63   1.959       .  S
O55          C65   1.272       .  A
O56         Cu63   1.959       .  S
O56          C66   1.272       .  A
O57         Cu63   1.958       .  S
O57          C67   1.272       .  A
O58         Cu63   1.959       .  S
O58          C68   1.272       .  A
O59         Cu64   2.053       .  S
O59          C68   1.282       .  A
O60         Cu64   2.054       .  S
O60          C67   1.282       .  A
O61         Cu64   2.052       .  S
O61          C66   1.282       .  A
O62         Cu64   2.054       .  S
O62          C65   1.282       .  A
Cu63        Cu64   2.372       .  S
C65         C106   1.470       .  S
C66         C130   1.470       .  S
C67          C82   1.470       .  S
C68         C154   1.470       .  S
N69          N70   1.329       .  A
N69          C73   1.348       .  A
N69         Cu77   2.091       .  S
N70          C71   1.343       .  A
N70         Cu76   2.087       .  S
C71          C72   1.377       .  A
C71          H74   1.082       .  S
C72          C73   1.380       .  A
C72         C724   1.466       .  S
C73          H75   1.082       .  S
Cu76         N79   2.082       .  S
Cu77         N87   2.086       .  S
Cu78         N80   2.046       .  S
Cu78         N86   2.046       .  S
N79          N80   1.319       .  A
N79          C83   1.355       .  A
N80          C81   1.332       .  A
C81          C82   1.378       .  A
C81          H84   1.082       .  S
C82          C83   1.391       .  A
C83          H85   1.082       .  S
N86          N87   1.318       .  A
N86          C90   1.338       .  A
N87          C88   1.351       .  A
C88          C89   1.392       .  A
C88          H91   1.082       .  S
C89          C90   1.382       .  A
C89         C865   1.483       .  S
C90          H92   1.081       .  S
N93          N94   1.329       .  A
N93          C97   1.348       .  A
N93        Cu101   2.092       .  S
N94          C95   1.343       .  A
N94        Cu100   2.085       .  S
C95          C96   1.377       .  A
C95          H98   1.082       .  S
C96          C97   1.380       .  A
C97          H99   1.082       .  S
Cu100       N103   2.080       .  S
Cu101       N111   2.088       .  S
Cu102       N104   2.049       .  S
Cu102       N110   2.050       .  S
N103        N104   1.319       .  A
N103        C107   1.355       .  A
N104        C105   1.333       .  A
C105        C106   1.378       .  A
C105        H108   1.082       .  S
C106        C107   1.391       .  A
C107        H109   1.082       .  S
N110        N111   1.318       .  A
N110        C114   1.339       .  A
N111        C112   1.351       .  A
C112        C113   1.392       .  A
C112        H115   1.082       .  S
C113        C114   1.382       .  A
C113        C853   1.485       .  S
C114        H116   1.081       .  S
N117        N118   1.328       .  A
N117        C121   1.348       .  A
N117       Cu125   2.090       .  S
N118        C119   1.343       .  A
N118       Cu124   2.083       .  S
C119        C120   1.377       .  A
C119        H122   1.082       .  S
C120        C121   1.380       .  A
C121        H123   1.082       .  S
Cu124       N127   2.078       .  S
Cu125       N135   2.086       .  S
Cu126       N128   2.049       .  S
Cu126       N134   2.050       .  S
N127        N128   1.319       .  A
N127        C131   1.355       .  A
N128        C129   1.333       .  A
C129        C130   1.378       .  A
C129        H132   1.082       .  S
C130        C131   1.390       .  A
C131        H133   1.082       .  S
N134        N135   1.319       .  A
N134        C138   1.338       .  A
N135        C136   1.351       .  A
C136        C137   1.392       .  A
C136        H139   1.082       .  S
C137        C138   1.382       .  A
C137        C844   1.483       .  S
C138        H140   1.082       .  S
N141        N142   1.329       .  A
N141        C145   1.348       .  A
N141       Cu149   2.092       .  S
N142        C143   1.343       .  A
N142       Cu148   2.084       .  S
C143        C144   1.377       .  A
C143        H146   1.082       .  S
C144        C145   1.380       .  A
C144        C497   1.466       .  S
C145        H147   1.082       .  S
Cu148       N151   2.080       .  S
Cu149       N159   2.088       .  S
Cu150       N152   2.046       .  S
Cu150       N158   2.047       .  S
N151        N152   1.318       .  A
N151        C155   1.355       .  A
N152        C153   1.333       .  A
C153        C154   1.378       .  A
C153        H156   1.082       .  S
C154        C155   1.391       .  A
C155        H157   1.082       .  S
N158        N159   1.318       .  A
N158        C162   1.338       .  A
N159        C160   1.352       .  A
C160        C161   1.392       .  A
C160        H163   1.082       .  S
C161        C162   1.382       .  A
C161        C829   1.484       .  S
C162        H164   1.081       .  S
O165       Cu173   1.960       .  S
O165        C175   1.272       .  A
O166       Cu173   1.960       .  S
O166        C176   1.272       .  A
O167       Cu173   1.959       .  S
O167        C177   1.272       .  A
O168       Cu173   1.960       .  S
O168        C178   1.272       .  A
O169       Cu174   2.053       .  S
O169        C178   1.282       .  A
O170       Cu174   2.054       .  S
O170        C177   1.282       .  A
O171       Cu174   2.053       .  S
O171        C176   1.282       .  A
O172       Cu174   2.053       .  S
O172        C175   1.282       .  A
Cu173      Cu174   2.372       .  S
C175        C216   1.470       .  S
C176        C240   1.470       .  S
C177        C264   1.471       .  S
C178        C192   1.470       .  S
N179        N180   1.329       .  A
N179        C183   1.348       .  A
N179       Cu187   2.089       .  S
N180        C181   1.343       .  A
N180       Cu186   2.086       .  S
C181        C182   1.377       .  A
C181        H184   1.082       .  S
C182        C183   1.379       .  A
C183        H185   1.082       .  S
Cu186       N189   2.081       .  S
Cu187       N197   2.085       .  S
Cu188       N190   2.047       .  S
Cu188       N196   2.048       .  S
N189        N190   1.319       .  A
N189        C193   1.355       .  A
N190        C191   1.333       .  A
C191        C192   1.378       .  A
C191        H194   1.082       .  S
C192        C193   1.391       .  A
C193        H195   1.082       .  S
N196        N197   1.318       .  A
N196        C200   1.338       .  A
N197        C198   1.351       .  A
C198        C199   1.392       .  A
C198        H201   1.081       .  S
C199        C200   1.382       .  A
C199        C868   1.484       .  S
C200        H202   1.082       .  S
N203        N204   1.329       .  A
N203        C207   1.348       .  A
N203       Cu211   2.093       .  S
N204        C205   1.343       .  A
N204       Cu210   2.085       .  S
C205        C206   1.377       .  A
C205        H208   1.082       .  S
C206        C207   1.380       .  A
C207        H209   1.082       .  S
Cu210       N213   2.080       .  S
Cu211       N221   2.089       .  S
Cu212       N214   2.047       .  S
Cu212       N220   2.048       .  S
N213        N214   1.319       .  A
N213        C217   1.355       .  A
N214        C215   1.333       .  A
C215        C216   1.378       .  A
C215        H218   1.082       .  S
C216        C217   1.391       .  A
C217        H219   1.082       .  S
N220        N221   1.318       .  A
N220        C224   1.338       .  A
N221        C222   1.352       .  A
C222        C223   1.394       .  A
C222        H225   1.081       .  S
C223        C224   1.382       .  A
C223        C856   1.486       .  S
C224        H226   1.082       .  S
N227        N228   1.329       .  A
N227        C231   1.348       .  A
N227       Cu235   2.091       .  S
N228        C229   1.343       .  A
N228       Cu234   2.085       .  S
C229        C230   1.377       .  A
C229        H232   1.082       .  S
C230        C231   1.380       .  A
C231        H233   1.082       .  S
Cu234       N237   2.080       .  S
Cu235       N245   2.087       .  S
Cu236       N238   2.047       .  S
Cu236       N244   2.048       .  S
N237        N238   1.319       .  A
N237        C241   1.355       .  A
N238        C239   1.333       .  A
C239        C240   1.378       .  A
C239        H242   1.082       .  S
C240        C241   1.391       .  A
C241        H243   1.082       .  S
N244        N245   1.319       .  A
N244        C248   1.338       .  A
N245        C246   1.351       .  A
C246        C247   1.392       .  A
C246        H249   1.082       .  S
C247        C248   1.382       .  A
C247        C841   1.483       .  S
C248        H250   1.082       .  S
N251        N252   1.329       .  A
N251        C255   1.348       .  A
N251       Cu259   2.093       .  S
N252        C253   1.344       .  A
N252       Cu258   2.087       .  S
C253        C254   1.377       .  A
C253        H256   1.082       .  S
C254        C255   1.380       .  A
C255        H257   1.082       .  S
Cu258       N261   2.082       .  S
Cu259       N269   2.088       .  S
Cu260       N262   2.047       .  S
Cu260       N268   2.048       .  S
N261        N262   1.319       .  A
N261        C265   1.355       .  A
N262        C263   1.333       .  A
C263        C264   1.378       .  A
C263        H266   1.082       .  S
C264        C265   1.391       .  A
C265        H267   1.082       .  S
N268        N269   1.318       .  A
N268        C272   1.338       .  A
N269        C270   1.352       .  A
C270        C271   1.393       .  A
C270        H273   1.082       .  S
C271        C272   1.382       .  A
C271        C832   1.484       .  S
C272        H274   1.082       .  S
O275       Cu283   1.958       .  S
O275        C285   1.272       .  A
O276       Cu283   1.958       .  S
O276        C286   1.272       .  A
O277       Cu283   1.959       .  S
O277        C287   1.272       .  A
O278       Cu283   1.958       .  S
O278        C288   1.272       .  A
O279       Cu284   2.052       .  S
O279        C288   1.282       .  A
O280       Cu284   2.053       .  S
O280        C287   1.282       .  A
O281       Cu284   2.054       .  S
O281        C286   1.282       .  A
O282       Cu284   2.053       .  S
O282        C285   1.282       .  A
Cu283      Cu284   2.372       .  S
C285        C374   1.469       .  S
C286        C302   1.470       .  S
C287        C326   1.470       .  S
C288        C350   1.469       .  S
N289        N290   1.329       .  A
N289        C293   1.348       .  A
N289       Cu297   2.093       .  S
N290        C291   1.343       .  A
N290       Cu296   2.085       .  S
C291        C292   1.377       .  A
C291        H294   1.082       .  S
C292        C293   1.380       .  A
C292        C726   1.466       .  S
C293        H295   1.082       .  S
Cu296       N299   2.080       .  S
Cu297       N307   2.089       .  S
Cu298       N300   2.046       .  S
Cu298       N306   2.047       .  S
N299        N300   1.318       .  A
N299        C303   1.355       .  A
N300        C301   1.333       .  A
C301        C302   1.378       .  A
C301        H304   1.082       .  S
C302        C303   1.391       .  A
C303        H305   1.082       .  S
N306        N307   1.318       .  A
N306        C310   1.338       .  A
N307        C308   1.352       .  A
C308        C309   1.392       .  A
C308        H311   1.082       .  S
C309        C310   1.382       .  A
C309        C817   1.484       .  S
C310        H312   1.082       .  S
N313        N314   1.329       .  A
N313        C317   1.348       .  A
N313       Cu321   2.092       .  S
N314        C315   1.343       .  A
N314       Cu320   2.084       .  S
C315        C316   1.377       .  A
C315        H318   1.082       .  S
C316        C317   1.380       .  A
C317        H319   1.082       .  S
Cu320       N323   2.079       .  S
Cu321       N331   2.088       .  S
Cu322       N324   2.047       .  S
Cu322       N330   2.048       .  S
N323        N324   1.318       .  A
N323        C327   1.355       .  A
N324        C325   1.333       .  A
C325        C326   1.378       .  A
C325        H328   1.082       .  S
C326        C327   1.391       .  A
C327        H329   1.082       .  S
N330        N331   1.318       .  A
N330        C334   1.338       .  A
N331        C332   1.351       .  A
C332        C333   1.392       .  A
C332        H335   1.082       .  S
C333        C334   1.382       .  A
C333        C805   1.484       .  S
C334        H336   1.081       .  S
N337        N338   1.329       .  A
N337        C341   1.348       .  A
N337       Cu345   2.091       .  S
N338        C339   1.343       .  A
N338       Cu344   2.085       .  S
C339        C340   1.377       .  A
C339        H342   1.082       .  S
C340        C341   1.380       .  A
C341        H343   1.082       .  S
Cu344       N347   2.080       .  S
Cu345       N355   2.087       .  S
Cu346       N348   2.045       .  S
Cu346       N354   2.046       .  S
N347        N348   1.318       .  A
N347        C351   1.355       .  A
N348        C349   1.332       .  A
C349        C350   1.378       .  A
C349        H352   1.082       .  S
C350        C351   1.391       .  A
C351        H353   1.082       .  S
N354        N355   1.318       .  A
N354        C358   1.338       .  A
N355        C356   1.351       .  A
C356        C357   1.392       .  A
C356        H359   1.082       .  S
C357        C358   1.381       .  A
C357        C796   1.483       .  S
C358        H360   1.081       .  S
N361        N362   1.328       .  A
N361        C365   1.348       .  A
N361       Cu369   2.090       .  S
N362        C363   1.342       .  A
N362       Cu368   2.081       .  S
C363        C364   1.377       .  A
C363        H366   1.082       .  S
C364        C365   1.380       .  A
C365        H367   1.082       .  S
Cu368       N371   2.076       .  S
Cu369       N379   2.086       .  S
Cu370       N372   2.052       .  S
Cu370       N378   2.053       .  S
N371        N372   1.319       .  A
N371        C375   1.354       .  A
N372        C373   1.334       .  A
C373        C374   1.379       .  A
C373        H376   1.082       .  S
C374        C375   1.389       .  A
C375        H377   1.082       .  S
N378        N379   1.319       .  A
N378        C382   1.340       .  A
N379        C380   1.351       .  A
C380        C381   1.391       .  A
C380        H383   1.082       .  S
C381        C382   1.381       .  A
C381        C784   1.482       .  S
C382        H384   1.082       .  S
O385       Cu393   1.958       .  S
O385        C395   1.272       .  A
O386       Cu393   1.959       .  S
O386        C396   1.272       .  A
O387       Cu393   1.959       .  S
O387        C397   1.272       .  A
O388       Cu393   1.959       .  S
O388        C398   1.272       .  A
O389       Cu394   2.053       .  S
O389        C398   1.282       .  A
O390       Cu394   2.051       .  S
O390        C397   1.282       .  A
O391       Cu394   2.053       .  S
O391        C396   1.282       .  A
O392       Cu394   2.053       .  S
O392        C395   1.282       .  A
Cu393      Cu394   2.372       .  S
C395        C484   1.469       .  S
C396        C412   1.470       .  S
C397        C460   1.469       .  S
C398        C436   1.470       .  S
N399        N400   1.329       .  A
N399        C403   1.349       .  A
N399       Cu407   2.092       .  S
N400        C401   1.343       .  A
N400       Cu406   2.084       .  S
C401        C402   1.377       .  A
C401        H404   1.082       .  S
C402        C403   1.380       .  A
C403        H405   1.082       .  S
Cu406       N409   2.079       .  S
Cu407       N417   2.089       .  S
Cu408       N410   2.048       .  S
Cu408       N416   2.049       .  S
N409        N410   1.319       .  A
N409        C413   1.355       .  A
N410        C411   1.333       .  A
C411        C412   1.378       .  A
C411        H414   1.082       .  S
C412        C413   1.391       .  A
C413        H415   1.082       .  S
N416        N417   1.319       .  A
N416        C420   1.338       .  A
N417        C418   1.352       .  A
C418        C419   1.393       .  A
C418        H421   1.082       .  S
C419        C420   1.382       .  A
C419        C820   1.484       .  S
C420        H422   1.082       .  S
N423        N424   1.329       .  A
N423        C427   1.348       .  A
N423       Cu431   2.092       .  S
N424        C425   1.343       .  A
N424       Cu430   2.085       .  S
C425        C426   1.377       .  A
C425        H428   1.082       .  S
C426        C427   1.380       .  A
C426        C495   1.466       .  S
C427        H429   1.082       .  S
Cu430       N433   2.080       .  S
Cu431       N441   2.088       .  S
Cu432       N434   2.047       .  S
Cu432       N440   2.048       .  S
N433        N434   1.319       .  A
N433        C437   1.355       .  A
N434        C435   1.333       .  A
C435        C436   1.378       .  A
C435        H438   1.082       .  S
C436        C437   1.391       .  A
C437        H439   1.082       .  S
N440        N441   1.318       .  A
N440        C444   1.338       .  A
N441        C442   1.352       .  A
C442        C443   1.393       .  A
C442        H445   1.081       .  S
C443        C444   1.382       .  A
C443        C808   1.485       .  S
C444        H446   1.082       .  S
N447        N448   1.329       .  A
N447        C451   1.348       .  A
N447       Cu455   2.090       .  S
N448        C449   1.343       .  A
N448       Cu454   2.084       .  S
C449        C450   1.377       .  A
C449        H452   1.082       .  S
C450        C451   1.380       .  A
C451        H453   1.082       .  S
Cu454       N457   2.079       .  S
Cu455       N465   2.086       .  S
Cu456       N458   2.046       .  S
Cu456       N464   2.047       .  S
N457        N458   1.319       .  A
N457        C461   1.355       .  A
N458        C459   1.333       .  A
C459        C460   1.378       .  A
C459        H462   1.082       .  S
C460        C461   1.391       .  A
C461        H463   1.082       .  S
N464        N465   1.318       .  A
N464        C468   1.338       .  A
N465        C466   1.351       .  A
C466        C467   1.392       .  A
C466        H469   1.081       .  S
C467        C468   1.382       .  A
C467        C793   1.484       .  S
C468        H470   1.082       .  S
N471        N472   1.328       .  A
N471        C475   1.348       .  A
N471       Cu479   2.092       .  S
N472        C473   1.343       .  A
N472       Cu478   2.082       .  S
C473        C474   1.377       .  A
C473        H476   1.082       .  S
C474        C475   1.381       .  A
C475        H477   1.082       .  S
Cu478       N481   2.078       .  S
Cu479       N489   2.088       .  S
Cu480       N482   2.049       .  S
Cu480       N488   2.050       .  S
N481        N482   1.319       .  A
N481        C485   1.355       .  A
N482        C483   1.333       .  A
C483        C484   1.378       .  A
C483        H486   1.082       .  S
C484        C485   1.390       .  A
C485        H487   1.082       .  S
N488        N489   1.319       .  A
N488        C492   1.339       .  A
N489        C490   1.351       .  A
C490        C491   1.391       .  A
C490        H493   1.082       .  S
C491        C492   1.381       .  A
C491        C781   1.481       .  S
C492        H494   1.082       .  S
C495        C496   1.401       .  A
C495        C500   1.401       .  A
C496        C497   1.402       .  A
C496        H501   1.084       .  S
C497        C498   1.401       .  A
C498        C499   1.401       .  A
C498        H502   1.084       .  S
C499        C500   1.401       .  A
C499        C655   1.466       .  S
C500        H503   1.084       .  S
O504       Cu512   1.957       .  S
O504        C514   1.272       .  A
O505       Cu512   1.955       .  S
O505        C515   1.272       .  A
O506       Cu512   1.959       .  S
O506        C516   1.272       .  A
O507       Cu512   1.959       .  S
O507        C517   1.272       .  A
O508       Cu513   2.052       .  S
O508        C517   1.282       .  A
O509       Cu513   2.052       .  S
O509        C516   1.282       .  A
O510       Cu513   2.054       .  S
O510        C515   1.282       .  A
O511       Cu513   2.054       .  S
O511        C514   1.282       .  A
Cu512      Cu513   2.372       .  S
C514        C555   1.470       .  S
C515        C579   1.469       .  S
C516        C603   1.470       .  S
C517        C531   1.470       .  S
N518        N519   1.329       .  A
N518        C522   1.348       .  A
N518       Cu526   2.091       .  S
N519        C520   1.343       .  A
N519       Cu525   2.084       .  S
C520        C521   1.377       .  A
C520        H523   1.082       .  S
C521        C522   1.380       .  A
C521        C728   1.465       .  S
C522        H524   1.082       .  S
Cu525       N528   2.079       .  S
Cu526       N536   2.088       .  S
Cu527       N529   2.047       .  S
Cu527       N535   2.048       .  S
N528        N529   1.319       .  A
N528        C532   1.355       .  A
N529        C530   1.333       .  A
C530        C531   1.378       .  A
C530        H533   1.082       .  S
C531        C532   1.391       .  A
C532        H534   1.082       .  S
N535        N536   1.318       .  A
N535        C539   1.338       .  A
N536        C537   1.351       .  A
C537        C538   1.393       .  A
C537        H540   1.082       .  S
C538        C539   1.382       .  A
C538        C769   1.484       .  S
C539        H541   1.082       .  S
N542        N543   1.328       .  A
N542        C546   1.348       .  A
N542       Cu550   2.087       .  S
N543        C544   1.343       .  A
N543       Cu549   2.083       .  S
C544        C545   1.378       .  A
C544        H547   1.082       .  S
C545        C546   1.380       .  A
C546        H548   1.082       .  S
Cu549       N552   2.079       .  S
Cu550       N560   2.085       .  S
Cu551       N553   2.053       .  S
Cu551       N559   2.054       .  S
N552        N553   1.320       .  A
N552        C556   1.355       .  A
N553        C554   1.333       .  A
C554        C555   1.379       .  A
C554        H557   1.082       .  S
C555        C556   1.390       .  A
C556        H558   1.082       .  S
N559        N560   1.320       .  A
N559        C563   1.342       .  A
N560        C561   1.349       .  A
C561        C562   1.386       .  A
C561        H564   1.082       .  S
C562        C563   1.378       .  A
C562        C760   1.471       .  S
C563        H565   1.082       .  S
N566        N567   1.329       .  A
N566        C570   1.348       .  A
N566       Cu574   2.093       .  S
N567        C568   1.342       .  A
N567       Cu573   2.083       .  S
C568        C569   1.376       .  A
C568        H571   1.082       .  S
C569        C570   1.380       .  A
C570        H572   1.082       .  S
Cu573       N576   2.078       .  S
Cu574       N584   2.089       .  S
Cu575       N577   2.045       .  S
Cu575       N583   2.046       .  S
N576        N577   1.318       .  A
N576        C580   1.355       .  A
N577        C578   1.332       .  A
C578        C579   1.378       .  A
C578        H581   1.082       .  S
C579        C580   1.391       .  A
C580        H582   1.082       .  S
N583        N584   1.318       .  A
N583        C587   1.338       .  A
N584        C585   1.351       .  A
C585        C586   1.392       .  A
C585        H588   1.082       .  S
C586        C587   1.382       .  A
C586        C748   1.484       .  S
C587        H589   1.082       .  S
N590        N591   1.328       .  A
N590        C594   1.348       .  A
N590       Cu598   2.090       .  S
N591        C592   1.343       .  A
N591       Cu597   2.085       .  S
C592        C593   1.377       .  A
C592        H595   1.082       .  S
C593        C594   1.380       .  A
C594        H596   1.082       .  S
Cu597       N600   2.080       .  S
Cu598       N608   2.086       .  S
Cu599       N601   2.047       .  S
Cu599       N607   2.048       .  S
N600        N601   1.319       .  A
N600        C604   1.355       .  A
N601        C602   1.333       .  A
C602        C603   1.378       .  A
C602        H605   1.082       .  S
C603        C604   1.391       .  A
C604        H606   1.082       .  S
N607        N608   1.318       .  A
N607        C611   1.338       .  A
N608        C609   1.351       .  A
C609        C610   1.392       .  A
C609        H612   1.082       .  S
C610        C611   1.382       .  A
C610        C733   1.484       .  S
C611        H613   1.081       .  S
O614       Cu622   2.054       .  S
O614        C624   1.282       .  A
O615       Cu622   2.055       .  S
O615        C625   1.282       .  A
O616       Cu622   2.051       .  S
O616        C626   1.282       .  A
O617       Cu622   2.053       .  S
O617        C627   1.282       .  A
O618       Cu623   1.959       .  S
O618        C627   1.272       .  A
O619       Cu623   1.960       .  S
O619        C626   1.272       .  A
O620       Cu623   1.956       .  S
O620        C625   1.272       .  A
O621       Cu623   1.958       .  S
O621        C624   1.272       .  A
Cu622      Cu623   2.372       .  S
C624        C665   1.470       .  S
C625        C689   1.470       .  S
C626        C713   1.470       .  S
C627        C641   1.470       .  S
N628        N629   1.329       .  A
N628        C632   1.348       .  A
N628       Cu636   2.093       .  S
N629        C630   1.344       .  A
N629       Cu635   2.087       .  S
C630        C631   1.377       .  A
C630        H633   1.082       .  S
C631        C632   1.380       .  A
C632        H634   1.082       .  S
Cu635       N638   2.082       .  S
Cu636       N646   2.089       .  S
Cu637       N639   2.045       .  S
Cu637       N645   2.046       .  S
N638        N639   1.319       .  A
N638        C642   1.355       .  A
N639        C640   1.333       .  A
C640        C641   1.378       .  A
C640        H643   1.082       .  S
C641        C642   1.391       .  A
C642        H644   1.082       .  S
N645        N646   1.318       .  A
N645        C649   1.338       .  A
N646        C647   1.352       .  A
C647        C648   1.392       .  A
C647        H650   1.082       .  S
C648        C649   1.382       .  A
C648        C772   1.484       .  S
C649        H651   1.082       .  S
N652        N653   1.327       .  A
N652        C656   1.348       .  A
N652       Cu660   2.087       .  S
N653        C654   1.343       .  A
N653       Cu659   2.083       .  S
C654        C655   1.378       .  A
C654        H657   1.082       .  S
C655        C656   1.380       .  A
C656        H658   1.082       .  S
Cu659       N662   2.079       .  S
Cu660       N670   2.084       .  S
Cu661       N663   2.054       .  S
Cu661       N669   2.055       .  S
N662        N663   1.320       .  A
N662        C666   1.355       .  A
N663        C664   1.334       .  A
C664        C665   1.379       .  A
C664        H667   1.082       .  S
C665        C666   1.390       .  A
C666        H668   1.082       .  S
N669        N670   1.320       .  A
N669        C673   1.342       .  A
N670        C671   1.349       .  A
C671        C672   1.386       .  A
C671        H674   1.082       .  S
C672        C673   1.378       .  A
C672        C757   1.471       .  S
C673        H675   1.082       .  S
N676        N677   1.329       .  A
N676        C680   1.348       .  A
N676       Cu684   2.091       .  S
N677        C678   1.343       .  A
N677       Cu683   2.085       .  S
C678        C679   1.377       .  A
C678        H681   1.082       .  S
C679        C680   1.380       .  A
C680        H682   1.082       .  S
Cu683       N686   2.080       .  S
Cu684       N694   2.087       .  S
Cu685       N687   2.047       .  S
Cu685       N693   2.048       .  S
N686        N687   1.319       .  A
N686        C690   1.355       .  A
N687        C688   1.332       .  A
C688        C689   1.378       .  A
C688        H691   1.082       .  S
C689        C690   1.391       .  A
C690        H692   1.082       .  S
N693        N694   1.318       .  A
N693        C697   1.338       .  A
N694        C695   1.351       .  A
C695        C696   1.393       .  A
C695        H698   1.081       .  S
C696        C697   1.382       .  A
C696        C745   1.485       .  S
C697        H699   1.082       .  S
N700        N701   1.328       .  A
N700        C704   1.348       .  A
N700       Cu708   2.090       .  S
N701        C702   1.342       .  A
N701       Cu707   2.084       .  S
C702        C703   1.377       .  A
C702        H705   1.082       .  S
C703        C704   1.380       .  A
C704        H706   1.082       .  S
Cu707       N710   2.079       .  S
Cu708       N718   2.086       .  S
Cu709       N711   2.047       .  S
Cu709       N717   2.048       .  S
N710        N711   1.319       .  A
N710        C714   1.355       .  A
N711        C712   1.333       .  A
C712        C713   1.378       .  A
C712        H715   1.082       .  S
C713        C714   1.391       .  A
C714        H716   1.082       .  S
N717        N718   1.318       .  A
N717        C721   1.338       .  A
N718        C719   1.351       .  A
C719        C720   1.393       .  A
C719        H722   1.081       .  S
C720        C721   1.382       .  A
C720        C736   1.485       .  S
C721        H723   1.082       .  S
C724        C725   1.401       .  A
C724        C729   1.401       .  A
C725        C726   1.402       .  A
C725        H730   1.084       .  S
C726        C727   1.401       .  A
C727        C728   1.402       .  A
C727        H731   1.084       .  S
C728        C729   1.401       .  A
C729        H732   1.084       .  S
C733        C734   1.406       .  A
C733        C738   1.410       .  A
C734        C735   1.407   1_455  A
C734        H739   1.083       .  S
C735        C736   1.410       .  A
C735        O740   1.371       .  S
C736        C737   1.404       .  A
C737        C738   1.396   1_655  A
C737        H741   1.083       .  S
C738        O742   1.373       .  S
O740        H744   0.992       .  S
O742        H743   0.992       .  S
C745        C746   1.404       .  A
C745        C750   1.411       .  A
C746        C747   1.394   1_655  A
C746        H751   1.083       .  S
C747        C748   1.410       .  A
C747        O752   1.372       .  S
C748        C749   1.406       .  A
C749        C750   1.407   1_455  A
C749        H753   1.083       .  S
C750        O754   1.371       .  S
O752        H756   0.992       .  S
O754        H755   0.992       .  S
C757        C758   1.402       .  A
C757        C762   1.406       .  A
C758        C759   1.402   1_655  A
C758        H763   1.084       .  S
C759        C760   1.407       .  A
C759        O764   1.371       .  S
C760        C761   1.402       .  A
C761        C762   1.400   1_455  A
C761        H765   1.084       .  S
C762        O766   1.371       .  S
O764        H768   0.991       .  S
O766        H767   0.992       .  S
C769        C770   1.403       .  A
C769        C774   1.411       .  A
C770        C771   1.394   1_455  A
C770        H775   1.083       .  S
C771        C772   1.410       .  A
C771        O776   1.372       .  S
C772        C773   1.406       .  A
C773        C774   1.407   1_655  A
C773        H777   1.083       .  S
C774        O778   1.371       .  S
O776        H780   0.992       .  S
O778        H779   0.992       .  S
C781        C782   1.405       .  A
C781        C786   1.409       .  A
C782        C783   1.407   1_565  A
C782        H787   1.083       .  S
C783        C784   1.410       .  A
C783        O788   1.371       .  S
C784        C785   1.403       .  A
C785        C786   1.395   1_545  A
C785        H789   1.084       .  S
C786        O790   1.372       .  S
O788        H792   0.991       .  S
O790        H791   0.992       .  S
C793        C794   1.403       .  A
C793        C798   1.410       .  A
C794        C795   1.396   1_565  A
C794        H799   1.083       .  S
C795        C796   1.410       .  A
C795        O800   1.373       .  S
C796        C797   1.406       .  A
C797        C798   1.407   1_545  A
C797        H801   1.083       .  S
C798        O802   1.371       .  S
O800        H804   0.992       .  S
O802        H803   0.992       .  S
C805        C806   1.406       .  A
C805        C810   1.410       .  A
C806        C807   1.407   1_545  A
C806        H811   1.083       .  S
C807        C808   1.410       .  A
C807        O812   1.371       .  S
C808        C809   1.404       .  A
C809        C810   1.396   1_565  A
C809        H813   1.083       .  S
C810        O814   1.373       .  S
O812        H816   0.992       .  S
O814        H815   0.992       .  S
C817        C818   1.406       .  A
C817        C822   1.411       .  A
C818        C819   1.407   1_545  A
C818        H823   1.083       .  S
C819        C820   1.411       .  A
C819        O824   1.371       .  S
C820        C821   1.403       .  A
C821        C822   1.394   1_565  A
C821        H825   1.083       .  S
C822        O826   1.372       .  S
O824        H828   0.992       .  S
O826        H827   0.992       .  S
C829        C830   1.406       .  A
C829        C834   1.411       .  A
C830        C831   1.407   1_554  A
C830        H835   1.083       .  S
C831        C832   1.411       .  A
C831        O836   1.371       .  S
C832        C833   1.403       .  A
C833        C834   1.394   1_556  A
C833        H837   1.083       .  S
C834        O838   1.372       .  S
O836        H840   0.992       .  S
O838        H839   0.992       .  S
C841        C842   1.406       .  A
C841        C846   1.410       .  A
C842        C843   1.407   1_556  A
C842        H847   1.083       .  S
C843        C844   1.411       .  A
C843        O848   1.371       .  S
C844        C845   1.403       .  A
C845        C846   1.394   1_554  A
C845        H849   1.083       .  S
C846        O850   1.372       .  S
O848        H852   0.992       .  S
O850        H851   0.992       .  S
C853        C854   1.406       .  A
C853        C858   1.410       .  A
C854        C855   1.408   1_554  A
C854        H859   1.083       .  S
C855        C856   1.410       .  A
C855        O860   1.371       .  S
C856        C857   1.404       .  A
C857        C858   1.397   1_556  A
C857        H861   1.083       .  S
C858        O862   1.373       .  S
O860        H864   0.992       .  S
O862        H863   0.992       .  S
C865        C866   1.406       .  A
C865        C870   1.410       .  A
C866        C867   1.407   1_554  A
C866        H871   1.083       .  S
C867        C868   1.410       .  A
C867        O872   1.371       .  S
C868        C869   1.403       .  A
C869        C870   1.396   1_556  A
C869        H873   1.083       .  S
C870        O874   1.373       .  S
O872        H876   0.992       .  S
O874        H875   0.992       .  S
