geometry optimzed in LAMMPS
_audit_creation_date              2020-12-01 
_audit_creation_method            'lammps2cif' 
_symmetry_space_group_name_H-M    'P1' 
_symmetry_Int_Tables_number       1 
_symmetry_cell_setting            triclinic 
loop_ 
_symmetry_equiv_pos_as_xyz 
  x,y,z 
_cell_length_a                    42.69315347 
_cell_length_b                    42.712594464472744 
_cell_length_c                    42.670956191913675 
_cell_angle_alpha                 90.14975896348672 
_cell_angle_beta                  89.88252269041872 
_cell_angle_gamma                 90.04114731674775 
loop_ 
_atom_site_label 
_atom_site_type_symbol 
_atom_site_fract_x 
_atom_site_fract_y 
_atom_site_fract_z 
_atom_site_charge 
C1          C  0.75494100  0.71660452  0.70829671     0.80100
N2          N  0.73839734  0.74060193  0.69573481    -0.78300
C3          C  0.71288012  0.75227185  0.71069553     0.82500
N4          N  0.70385177  0.73948306  0.73829156    -0.78200
C5          C  0.72001129  0.71546154  0.75123809     0.82600
N6          N  0.74545426  0.70388167  0.73588114    -0.79900
C7          C  0.22734553  0.70834641  0.18552357     0.80100
N8          N  0.24048540  0.73404750  0.19906569    -0.78300
C9          C  0.22827588  0.74635918  0.22583342     0.82500
N10         N  0.20285566  0.73258075  0.23901908    -0.78200
C11         C  0.18943683  0.70702686  0.22586355     0.82600
N12         N  0.20195233  0.69496999  0.19923528    -0.79900
C13         C  0.74316683  0.22364237  0.70656103     0.80100
N14         N  0.72909132  0.19906402  0.69194757    -0.78300
C15         C  0.70351643  0.18502810  0.70481977     0.82500
N16         N  0.69198073  0.19615702  0.73229237    -0.78200
C17         C  0.70578995  0.22049260  0.74726045     0.82600
N18         N  0.73144373  0.23407297  0.73431080    -0.79900
C19         C  0.18498641  0.22962657  0.70706273     0.80100
N20         N  0.19884901  0.20457158  0.69323512    -0.78300
C21         C  0.22665514  0.19341605  0.70376776     0.82500
N22         N  0.24074191  0.20769344  0.72857161    -0.78200
C23         C  0.22728296  0.23301825  0.74252009     0.82600
N24         N  0.19949512  0.24380664  0.73154932    -0.79900
C25         C  0.23179356  0.70388002  0.74558726     0.80100
N26         N  0.24343833  0.73137595  0.73450122    -0.78300
C27         C  0.23006901  0.74597518  0.70962238     0.82500
N28         N  0.20468465  0.73258331  0.69588178    -0.78200
C29         C  0.19260765  0.70522418  0.70651649     0.82600
N30         N  0.20653709  0.69092223  0.73121524    -0.79900
C31         C  0.70606373  0.22294002  0.19183930     0.80100
N32         N  0.69501778  0.19552678  0.20350013    -0.78300
C33         C  0.70886740  0.18175220  0.22851807     0.82500
N34         N  0.73357799  0.19610983  0.24230366    -0.78200
C35         C  0.74485116  0.22354313  0.23100821     0.82600
N36         N  0.73103567  0.23689387  0.20576388    -0.79900
O37         O  0.43769365  0.50405820  0.12510658    -0.73100
O38         O  0.49865101  0.43230508  0.12326359    -0.74100
O39         O  0.50465656  0.49911870  0.12294813    -0.62700
O40         O  0.43211795  0.43740723  0.12480378    -0.71100
O41         O  0.43033731  0.43977401  0.07285547    -0.70700
O42         O  0.50425644  0.49663282  0.07101153    -0.61900
O43         O  0.49591412  0.43123753  0.07131223    -0.74400
O44         O  0.43848752  0.50498408  0.07307080    -0.73200
Cu45       Cu  0.46837168  0.46824034  0.12597493     1.04600
Cu46       Cu  0.46723345  0.46816888  0.07036294     1.04300
C47         C  0.42828095  0.51556645  0.09917218     0.93100
C48         C  0.50680609  0.42047290  0.09695170     0.92200
C49         C  0.51611718  0.50711918  0.09636928     0.84400
C50         C  0.41957260  0.42945288  0.09875028     0.90600
C51         C  0.28284726  0.29956544  0.08449086     0.03000
C52         C  0.27724339  0.29703759  0.05218799    -0.13200
C53         C  0.29400937  0.31571791  0.03103371     0.00500
C54         C  0.31716333  0.33605592  0.04250556    -0.11700
C55         C  0.32270791  0.33916568  0.07473965     0.03000
C56         C  0.30551445  0.32067014  0.09573557    -0.11100
H57         H  0.25940849  0.28109533  0.04366944     0.08500
H58         H  0.33096511  0.34976289  0.02617924     0.06100
H59         H  0.30938287  0.32295631  0.12072930     0.05900
C60         C  0.29116872  0.64338055  0.08568057     0.03000
C61         C  0.28492646  0.64575976  0.05351930    -0.13200
C62         C  0.30331586  0.62913039  0.03191631     0.00500
C63         C  0.32774572  0.61011083  0.04273543    -0.11700
C64         C  0.33454014  0.60815851  0.07478523     0.03000
C65         C  0.31587698  0.62454596  0.09625978    -0.11100
H66         H  0.26571693  0.66017191  0.04539503     0.08500
H67         H  0.34132450  0.59650083  0.02608416     0.06100
H68         H  0.32057363  0.62271971  0.12114662     0.05900
C69         C  0.63828704  0.28660692  0.09415500     0.03000
C70         C  0.64629623  0.28209304  0.06257040    -0.13200
C71         C  0.62948912  0.29752506  0.03915788     0.00500
C72         C  0.60443501  0.31704928  0.04723915    -0.11700
C73         C  0.59598394  0.32136030  0.07868503     0.03000
C74         C  0.61296866  0.30600133  0.10211882    -0.11100
H75         H  0.66586695  0.26716798  0.05630238     0.08500
H76         H  0.59204163  0.32955910  0.02899296     0.06100
H77         H  0.60654339  0.30921025  0.12650205     0.05900
C78         C  0.64275894  0.64704021  0.08556000     0.03000
C79         C  0.64451545  0.65500669  0.05369196    -0.13200
C80         C  0.62819178  0.63724990  0.03131935     0.00500
C81         C  0.60971091  0.61190079  0.04122871    -0.11700
C82         C  0.60743165  0.60390242  0.07300598     0.03000
C83         C  0.62441851  0.62140156  0.09499988    -0.11100
H84         H  0.65832192  0.67501808  0.04642209     0.08500
H85         H  0.59690884  0.59831353  0.02400208     0.06100
H86         H  0.62360253  0.61498365  0.11953905     0.05900
O87         O  0.44900373  0.49950727  0.86349047    -0.73100
O88         O  0.51362783  0.43235468  0.86242969    -0.74100
O89         O  0.51530410  0.49775277  0.86058534    -0.62700
O90         O  0.44759827  0.43292505  0.86491761    -0.71100
O91         O  0.44524315  0.43115306  0.81300144    -0.70700
O92         O  0.51258794  0.49741706  0.80859970    -0.61900
O93         O  0.51243111  0.43076425  0.81042110    -0.74400
O94         O  0.44542394  0.49793237  0.81168972    -0.73200
Cu95       Cu  0.48135253  0.46568520  0.86456812     1.04600
Cu96       Cu  0.47880475  0.46425829  0.80901616     1.04300
C97         C  0.43681932  0.50940965  0.83806858     0.93100
C98         C  0.52366352  0.42129580  0.83651953     0.92200
C99         C  0.52476351  0.50764412  0.83399423     0.84400
C100        C  0.43597080  0.42148297  0.83979086     0.90600
C101        C  0.29257393  0.29739148  0.84259101     0.03000
C102        C  0.31802865  0.31667375  0.83433401    -0.13200
C103        C  0.33404546  0.33392569  0.85735485     0.00500
C104        C  0.32415968  0.33173169  0.88858506    -0.11700
C105        C  0.29872851  0.31280941  0.89722144     0.03000
C106        C  0.28294313  0.29554841  0.87408264    -0.11100
H107        H  0.32549498  0.31791777  0.81008577     0.08500
H108        H  0.33636315  0.34504724  0.90646315     0.06100
H109        H  0.26293396  0.28126072  0.88039780     0.05900
C110        C  0.29731695  0.63702691  0.84378409     0.03000
C111        C  0.28793396  0.63970590  0.87525075    -0.13200
C112        C  0.30298752  0.62213475  0.89844643     0.00500
C113        C  0.32765727  0.60214820  0.89006182    -0.11700
C114        C  0.33783773  0.59969798  0.85887360     0.03000
C115        C  0.32214799  0.61689829  0.83567080    -0.11100
H116        H  0.26899748  0.65537950  0.88163296     0.08500
H117        H  0.33916747  0.58858319  0.90811460     0.06100
H118        H  0.32938308  0.61488403  0.81139578     0.05900
C119        C  0.65133095  0.28449956  0.85244184     0.03000
C120        C  0.65487480  0.27964550  0.88474824    -0.13200
C121        C  0.63949956  0.29939303  0.90608839     0.00500
C122        C  0.62099836  0.32407486  0.89503446    -0.11700
C123        C  0.61728185  0.32899654  0.86281172     0.03000
C124        C  0.63236700  0.30902105  0.84163911    -0.11100
H125        H  0.66889225  0.26032423  0.89324540     0.08500
H126        H  0.60873675  0.33895117  0.91163122     0.06100
H127        H  0.62945221  0.31260864  0.81666855     0.05900
C128        C  0.65489454  0.64403053  0.84513616     0.03000
C129        C  0.65324815  0.65196982  0.87705448    -0.13200
C130        C  0.63385744  0.63498260  0.89740341     0.00500
C131        C  0.61663329  0.60958667  0.88564774    -0.11700
C132        C  0.61770098  0.60174589  0.85381373     0.03000
C133        C  0.63646710  0.61931037  0.83344941    -0.11100
H134        H  0.66688845  0.67145803  0.88595755     0.08500
H135        H  0.60210701  0.59585545  0.90131896     0.06100
H136        H  0.63648454  0.61394732  0.80861686     0.05900
O137        O  0.49530719  0.06063280  0.42700621    -0.73100
O138        O  0.42660897  0.06512096  0.48989557    -0.74100
O139        O  0.42999895  0.06487268  0.42408887    -0.62700
O140        O  0.49307700  0.06119051  0.49282171    -0.71100
O141        O  0.49651740  0.11306624  0.49337873    -0.70700
O142        O  0.43212782  0.11686690  0.42489967    -0.61900
O143        O  0.43008457  0.11700887  0.49140043    -0.74400
O144        O  0.49897896  0.11246293  0.42670692    -0.73200
Cu145      Cu  0.46113733  0.06121342  0.45854705     1.04600
Cu146      Cu  0.46456401  0.11675280  0.45909040     1.04300
C147        C  0.50793776  0.08564701  0.41670429     0.93100
C148        C  0.41730056  0.09151282  0.50043844     0.92200
C149        C  0.42105856  0.09138865  0.41373719     0.84400
C150        C  0.50509836  0.08637442  0.50368392     0.90600
C151        C  0.28089017  0.08848306  0.28789028     0.03000
C152        C  0.27175530  0.05681140  0.28747467    -0.13200
C153        C  0.28672618  0.03520812  0.30704540     0.00500
C154        C  0.31093060  0.04522171  0.32665810    -0.11700
C155        C  0.32026635  0.07656473  0.32717891     0.03000
C156        C  0.30539957  0.09817444  0.30761971    -0.11100
H157        H  0.25340761  0.04897446  0.27178702     0.08500
H158        H  0.32303908  0.02834180  0.34121552     0.06100
H159        H  0.31281683  0.12245102  0.30785095     0.05900
C160        C  0.64938807  0.07843213  0.29197715     0.03000
C161        C  0.62398508  0.08663525  0.31139915    -0.13200
C162        C  0.60935342  0.06406683  0.33013777     0.00500
C163        C  0.62118112  0.03358331  0.33044355    -0.11700
C164        C  0.64624460  0.02498374  0.31115037     0.03000
C165        C  0.66037717  0.04739328  0.29182189    -0.11100
H166        H  0.61551627  0.11053831  0.31185590     0.08500
H167        H  0.61035338  0.01612487  0.34536654     0.06100
H168        H  0.67961877  0.04066441  0.27663907     0.05900
C169        C  0.28384918  0.09257817  0.63326602     0.03000
C170        C  0.27610564  0.06109214  0.63900570    -0.13200
C171        C  0.29066816  0.03719058  0.62180796     0.00500
C172        C  0.31310797  0.04490289  0.59910972    -0.11700
C173        C  0.32015885  0.07614850  0.59234415     0.03000
C174        C  0.30593300  0.09996973  0.60994644    -0.11100
H175        H  0.25892959  0.05524374  0.65678746     0.08500
H176        H  0.32528346  0.02633700  0.58673168     0.06100
H177        H  0.31164905  0.12422876  0.60518471     0.05900
C178        C  0.63745997  0.08720961  0.63783562     0.03000
C179        C  0.61598655  0.09407952  0.61385117    -0.13200
C180        C  0.59857948  0.06998423  0.59972123     0.00500
C181        C  0.60173081  0.03937256  0.61092900    -0.11700
C182        C  0.62292410  0.03228596  0.63482129     0.03000
C183        C  0.64111643  0.05613862  0.64796199    -0.11100
H184        H  0.61265774  0.11805800  0.60638600     0.08500
H185        H  0.58760762  0.02076551  0.60093770     0.06100
H186        H  0.65752981  0.05068283  0.66650752     0.05900
O187        O  0.50087964  0.86433734  0.50034210    -0.73100
O188        O  0.43177975  0.86848274  0.43812143    -0.74100
O189        O  0.43516518  0.86814126  0.50430041    -0.62700
O190        O  0.49715802  0.86420875  0.43462101    -0.71100
O191        O  0.49610695  0.81226299  0.43581493    -0.70700
O192        O  0.42973405  0.81645756  0.50314884    -0.61900
O193        O  0.42889815  0.81663837  0.43642846    -0.74400
O194        O  0.49632807  0.81260023  0.50300778    -0.73200
Cu195      Cu  0.46631886  0.86797929  0.46935509     1.04600
Cu196      Cu  0.46265718  0.81253274  0.46955441     1.04300
C197        C  0.50925480  0.83815521  0.51189115     0.93100
C198        C  0.41971853  0.84352039  0.42694778     0.92200
C199        C  0.42253121  0.84312410  0.51471526     0.84400
C200        C  0.50674486  0.83781053  0.42437411     0.90600
C201        C  0.28317304  0.84794946  0.29631998     0.03000
C202        C  0.30620824  0.83952727  0.31818733    -0.13200
C203        C  0.31905849  0.86210030  0.33837998     0.00500
C204        C  0.30908881  0.89331166  0.33575804    -0.11700
C205        C  0.28753662  0.90217506  0.31273949     0.03000
C206        C  0.27441145  0.87940385  0.29315897    -0.11100
H207        H  0.31447822  0.81560378  0.31879109     0.08500
H208        H  0.31925876  0.91112676  0.35076993     0.06100
H209        H  0.25770299  0.88617586  0.27533161     0.05900
C210        C  0.65225702  0.83860034  0.30396334     0.03000
C211        C  0.66125418  0.87004149  0.30155611    -0.13200
C212        C  0.64583424  0.89291711  0.31916529     0.00500
C213        C  0.62098272  0.88433810  0.33884650    -0.11700
C214        C  0.61110553  0.85303797  0.34077605     0.03000
C215        C  0.62704895  0.83015068  0.32338061    -0.11100
H216        H  0.68029624  0.87668144  0.28608769     0.08500
H217        H  0.60872366  0.90228035  0.35205100     0.06100
H218        H  0.61929238  0.80600110  0.32409649     0.05900
C219        C  0.28516092  0.85069022  0.64414784     0.03000
C220        C  0.27592418  0.88219288  0.64593682    -0.13200
C221        C  0.29072339  0.90456116  0.62704185     0.00500
C222        C  0.31482509  0.89528887  0.60668880    -0.11700
C223        C  0.32430980  0.86395438  0.60487015     0.03000
C224        C  0.30938595  0.84168100  0.62373841    -0.11100
H225        H  0.25730874  0.88917756  0.66177305     0.08500
H226        H  0.32640307  0.91268220  0.59225245     0.06100
H227        H  0.31668002  0.81739655  0.62273074     0.05900
C228        C  0.63939809  0.84598211  0.64762479     0.03000
C229        C  0.64268261  0.87784898  0.65489702    -0.13200
C230        C  0.62365607  0.89998612  0.64013213     0.00500
C231        C  0.60177880  0.89011036  0.61771554    -0.11700
C232        C  0.59924270  0.85847783  0.60942119     0.03000
C233        C  0.61758540  0.83628994  0.62498635    -0.11100
H234        H  0.65960817  0.88529145  0.67229609     0.08500
H235        H  0.58729090  0.90727199  0.60594031     0.06100
H236        H  0.61550425  0.81170702  0.61896806     0.05900
C237        C  0.74870128  0.70278035  0.22406009     0.80100
N238        N  0.73705791  0.72798976  0.23965524    -0.78300
C239        C  0.71142857  0.74328137  0.22895241     0.82500
N240        N  0.69691085  0.73274311  0.20280300    -0.78200
C241        C  0.70803659  0.70753317  0.18701690     0.82600
N242        N  0.73397729  0.69260826  0.19773598    -0.79900
O243        O  0.11997470  0.49694348  0.50040720    -0.73100
O244        O  0.12045988  0.43205406  0.43202744    -0.74100
O245        O  0.12070315  0.49884893  0.43344099    -0.62700
O246        O  0.11896403  0.43038654  0.49884419    -0.71100
O247        O  0.06703267  0.43057960  0.49623493    -0.70700
O248        O  0.06867831  0.49912188  0.43389079    -0.61900
O249        O  0.06849714  0.43402304  0.43065510    -0.74400
O250        O  0.06800694  0.49622128  0.50042942    -0.73200
Cu251      Cu  0.12195938  0.46459846  0.46623591     1.04600
Cu252      Cu  0.06633966  0.46508444  0.46534726     1.04300
C253        C  0.09385996  0.50641799  0.51153684     0.93100
C254        C  0.09439860  0.42321618  0.42029173     0.92200
C255        C  0.09461402  0.50918718  0.42299344     0.84400
C256        C  0.09236179  0.41948249  0.50737564     0.90600
C257        C  0.08577153  0.28674799  0.29041245     0.03000
C258        C  0.05390671  0.27901816  0.28881082    -0.13200
C259        C  0.03251847  0.29351946  0.30895868     0.00500
C260        C  0.04306632  0.31566847  0.33069251    -0.11700
C261        C  0.07478363  0.32417706  0.33192512     0.03000
C262        C  0.09622448  0.30935502  0.31193612    -0.11100
H263        H  0.04575810  0.26209543  0.27169162     0.08500
H264        H  0.02625148  0.32730307  0.34582880     0.06100
H265        H  0.12074687  0.31591604  0.31246498     0.05900
C266        C  0.09001849  0.64164901  0.28961401     0.03000
C267        C  0.09875089  0.61840019  0.31104950    -0.13200
C268        C  0.07585361  0.60242611  0.32823808     0.00500
C269        C  0.04432620  0.61082497  0.32473215    -0.11700
C270        C  0.03542370  0.63393366  0.30333727     0.03000
C271        C  0.05832960  0.64928481  0.28561928    -0.11100
H272        H  0.12326020  0.61252029  0.31400772     0.08500
H273        H  0.02646492  0.59892326  0.33832970     0.06100
H274        H  0.05156462  0.66701439  0.26881868     0.05900
C275        C  0.08289553  0.29384146  0.64703339     0.03000
C276        C  0.09191629  0.31432103  0.62297270    -0.13200
C277        C  0.06955609  0.33246365  0.60738080     0.00500
C278        C  0.03801950  0.33026036  0.61643413    -0.11700
C279        C  0.02883701  0.31016197  0.64065754     0.03000
C280        C  0.05134869  0.29213200  0.65617180    -0.11100
H281        H  0.11632863  0.31583320  0.61616980     0.08500
H282        H  0.02046141  0.34414135  0.60451470     0.06100
H283        H  0.04427887  0.27647705  0.67484594     0.05900
C284        C  0.09108786  0.64337016  0.64093900     0.03000
C285        C  0.06029193  0.65511714  0.64080824    -0.13200
C286        C  0.03744405  0.64124326  0.62169412     0.00500
C287        C  0.04554687  0.61543862  0.60303795    -0.11700
C288        C  0.07571656  0.60271496  0.60392263     0.03000
C289        C  0.09861190  0.61711831  0.62248849    -0.11100
H290        H  0.05424053  0.67512476  0.65526153     0.08500
H291        H  0.02814541  0.60516685  0.58768350     0.06100
H292        H  0.12235361  0.60814503  0.62227456     0.05900
O293        O  0.86787572  0.50102348  0.49891266    -0.73100
O294        O  0.86420962  0.42914856  0.43987968    -0.74100
O295        O  0.86832753  0.49483356  0.43315442    -0.62700
O296        O  0.86373725  0.43602440  0.50549426    -0.71100
O297        O  0.81176045  0.43891637  0.50517305    -0.70700
O298        O  0.81639891  0.49776341  0.43149175    -0.61900
O299        O  0.81224253  0.43171237  0.43859738    -0.74400
O300        O  0.81605894  0.50532346  0.49801232    -0.73200
Cu301      Cu  0.86775334  0.46514336  0.46926656     1.04600
Cu302      Cu  0.81218425  0.46854451  0.46825059     1.04300
C303        C  0.84275995  0.51431711  0.50820809     0.93100
C304        C  0.83791758  0.41877295  0.43020213     0.92200
C305        C  0.84330537  0.50586003  0.42116488     0.84400
C306        C  0.83719043  0.42836499  0.51689682     0.90600
C307        C  0.84457583  0.28909738  0.29403205     0.03000
C308        C  0.83553671  0.31083590  0.31705855    -0.13200
C309        C  0.85805751  0.32637390  0.33505852     0.00500
C310        C  0.88984270  0.32011657  0.32982498    -0.11700
C311        C  0.89917743  0.29852917  0.30692596     0.03000
C312        C  0.87651982  0.28297047  0.28895310    -0.11100
H313        H  0.81088634  0.31509627  0.32144217     0.08500
H314        H  0.90747145  0.33199867  0.34373874     0.06100
H315        H  0.88368200  0.26569566  0.27173426     0.05900
C316        C  0.84825856  0.63279405  0.28268416     0.03000
C317        C  0.83985219  0.60923487  0.30400768    -0.13200
C318        C  0.86294935  0.59287185  0.32040979     0.00500
C319        C  0.89452313  0.60021617  0.31531844    -0.11700
C320        C  0.90316889  0.62393130  0.29441536     0.03000
C321        C  0.87997247  0.64009656  0.27785942    -0.11100
H322        H  0.81533518  0.60472417  0.30880227     0.08500
H323        H  0.91247237  0.58819848  0.32861895     0.06100
H324        H  0.88647827  0.65905629  0.26231290     0.05900
C325        C  0.84185454  0.30047177  0.65426867     0.03000
C326        C  0.83270471  0.32381198  0.63295270    -0.13200
C327        C  0.85492634  0.34422767  0.61997813     0.00500
C328        C  0.88645824  0.34123646  0.62849838    -0.11700
C329        C  0.89598775  0.31767047  0.64918265     0.03000
C330        C  0.87369866  0.29720542  0.66186833    -0.11100
H331        H  0.80829073  0.32613557  0.62645216     0.08500
H332        H  0.90390594  0.35625859  0.61776091     0.06100
H333        H  0.88123492  0.27845075  0.67714964     0.05900
C334        C  0.85008518  0.65584314  0.63307785     0.03000
C335        C  0.84154849  0.63043078  0.61380889    -0.13200
C336        C  0.86425369  0.61426921  0.59642995     0.00500
C337        C  0.89558980  0.62370892  0.59831576    -0.11700
C338        C  0.90469961  0.64844883  0.61789038     0.03000
C339        C  0.88183888  0.66460926  0.63515959    -0.11100
H340        H  0.81739271  0.62269027  0.61292255     0.08500
H341        H  0.91319816  0.61125279  0.58484679     0.06100
H342        H  0.88873499  0.68399310  0.65005592     0.05900
C343        C  0.22092430  0.18608860  0.21613897     0.80100
N344        N  0.23271845  0.19990450  0.18996733    -0.78300
C345        C  0.21858258  0.22553295  0.17746526     0.82500
N346        N  0.19266266  0.23734983  0.19163283    -0.78200
C347        C  0.18056999  0.22384099  0.21768258     0.82600
N348        N  0.19495879  0.19837070  0.22979832    -0.79900
C349        C  0.86166853  0.34371754  0.39028795    -0.26500
C350        C  0.84876581  0.34811215  0.36044897    -0.14600
C351        C  0.82858003  0.37371568  0.35510114     0.36100
C352        C  0.82307949  0.39528430  0.37944783    -0.25900
C353        C  0.83790538  0.39197923  0.40855738    -0.15200
C354        C  0.85634629  0.36511594  0.41449754     0.37200
N355        N  0.87040619  0.35897459  0.44449860    -0.89400
H356        H  0.87647662  0.32360217  0.39471648     0.18300
H357        H  0.80896369  0.41588222  0.37501805     0.18300
N358        N  0.81510118  0.37859812  0.32465342    -0.88500
H359        H  0.86196784  0.33733947  0.45223813     0.35600
H360        H  0.86324080  0.37513737  0.46140136     0.40700
H361        H  0.83344282  0.38302865  0.30900321     0.40400
H362        H  0.80089338  0.39852819  0.32469389     0.35200
C363        C  0.83236245  0.35579617  0.56759101    -0.26500
C364        C  0.84597868  0.36692979  0.59538734    -0.14600
C365        C  0.85341454  0.39897479  0.59821863     0.36100
C366        C  0.84879226  0.41887375  0.57248311    -0.25900
C367        C  0.83654966  0.40743933  0.54419678    -0.15200
C368        C  0.82768276  0.37558035  0.54184138     0.37200
N369        N  0.81503202  0.36219521  0.51359796    -0.89400
H370        H  0.82668007  0.33115377  0.56534097     0.18300
H371        H  0.85552353  0.44330294  0.57417825     0.18300
N372        N  0.86616306  0.41097264  0.62700645    -0.88500
H373        H  0.83105891  0.34559923  0.50534716     0.35600
H374        H  0.81248708  0.37881945  0.49592978     0.40700
H375        H  0.84911727  0.40816439  0.64440472     0.40400
H376        H  0.87040606  0.43501684  0.62522011     0.35200
C377        C  0.86546490  0.57843157  0.37619745    -0.26500
C378        C  0.85466088  0.57117504  0.34603827    -0.14600
C379        C  0.83819448  0.54284905  0.34099110     0.36100
C380        C  0.83381438  0.52205438  0.36602521    -0.25900
C381        C  0.84588163  0.52893484  0.39582783    -0.15200
C382        C  0.86140430  0.55764691  0.40096889     0.37200
N383        N  0.87302023  0.56642870  0.43121900    -0.89400
H384        H  0.87772804  0.60028170  0.38038757     0.18300
H385        H  0.82185148  0.50002201  0.36198307     0.18300
N386        N  0.82689692  0.53404820  0.31063040    -0.88500
H387        H  0.88992863  0.55021432  0.43815034     0.35600
H388        H  0.85444605  0.56569285  0.44716214     0.40700
H389        H  0.84568706  0.53436360  0.29488504     0.40400
H390        H  0.81033326  0.55046908  0.30339997     0.35200
C391        C  0.86742953  0.53550764  0.55585011    -0.26500
C392        C  0.84530876  0.53936577  0.53192517    -0.14600
C393        C  0.82703362  0.56686874  0.53099132     0.36100
C394        C  0.83262511  0.59073425  0.55314228    -0.25900
C395        C  0.85579958  0.58730787  0.57621267    -0.15200
C396        C  0.87238625  0.55884828  0.57838262     0.37200
N397        N  0.89421736  0.55381995  0.60349764    -0.89400
H398        H  0.88079828  0.51397672  0.55709105     0.18300
H399        H  0.81970967  0.61251285  0.55171707     0.18300
N400        N  0.80359056  0.57084728  0.50721065    -0.88500
H401        H  0.90448690  0.53166929  0.60167633     0.35600
H402        H  0.88150387  0.55401250  0.62446768     0.40700
H403        H  0.81500018  0.57181633  0.48556419     0.40400
H404        H  0.79210791  0.59228510  0.51006253     0.35200
C405        C  0.98730883  0.65128060  0.64991530    -0.26500
C406        C  0.00446124  0.65201724  0.62182241    -0.14600
C407        C  0.98880268  0.65799276  0.59339324     0.36100
C408        C  0.95601870  0.65969660  0.59315519    -0.25900
C409        C  0.93857369  0.65553923  0.62074003    -0.15200
C410        C  0.95435765  0.65280930  0.64967052     0.37200
N411        N  0.93693547  0.64956584  0.67835133    -0.89400
H412        H  0.99944123  0.64692548  0.67175382     0.18300
H413        H  0.94385667  0.66237066  0.57105084     0.18300
N414        N  0.00626089  0.66068267  0.56467404    -0.88500
H415        H  0.95210356  0.64798338  0.69748888     0.35600
H416        H  0.92471683  0.62836930  0.67729432     0.40700
H417        H  0.02056007  0.68046880  0.56659896     0.40400
H418        H  0.99123183  0.66463796  0.54577799     0.35200
C419        C  0.98167735  0.33350655  0.66453894    -0.26500
C420        C  0.99534988  0.30804920  0.64886255    -0.14600
C421        C  0.97609718  0.28348134  0.63761903     0.36100
C422        C  0.94354520  0.28602319  0.64078779    -0.25900
C423        C  0.92979235  0.31264476  0.65430281    -0.15200
C424        C  0.94912529  0.33601832  0.66769043     0.37200
N425        N  0.93659204  0.36295144  0.68367002    -0.89400
H426        H  0.99641677  0.35224444  0.67331989     0.18300
H427        H  0.92877436  0.26803509  0.63059851     0.18300
N428        N  0.98842806  0.25651713  0.62152860    -0.88500
H429        H  0.94511705  0.36257103  0.70662247     0.35600
H430        H  0.91225453  0.36166901  0.68563918     0.40700
H431        H  0.01281961  0.25682431  0.62039471     0.40400
H432        H  0.98037034  0.25724715  0.59841834     0.35200
C433        C  0.94969498  0.64595647  0.32024128    -0.26500
C434        C  0.93640152  0.63334580  0.29293033    -0.14600
C435        C  0.95590441  0.62619482  0.26701910     0.36100
C436        C  0.98840316  0.62975971  0.27007050    -0.25900
C437        C  0.00176577  0.63976768  0.29838808    -0.15200
C438        C  0.98209372  0.64950866  0.32325854     0.37200
N439        N  0.99417841  0.66185348  0.35223011    -0.89400
H440        H  0.93477300  0.65178783  0.34000683     0.18300
H441        H  0.00347045  0.62237625  0.25095289     0.18300
N442        N  0.94397050  0.61374028  0.23805598    -0.88500
H443        H  0.98498256  0.68436545  0.35509080     0.35600
H444        H  0.01844161  0.66471188  0.35126374     0.40700
H445        H  0.91963659  0.61177372  0.23831011     0.40400
H446        H  0.95278542  0.59104726  0.23546036     0.35200
C447        C  0.11414017  0.23910097  0.27514533    -0.26500
C448        C  0.10825019  0.27084365  0.26973121    -0.14600
C449        C  0.12436981  0.28661531  0.24546891     0.36100
C450        C  0.14725921  0.27047726  0.22839030    -0.25900
C451        C  0.15416795  0.23887864  0.23455208    -0.15200
C452        C  0.13679380  0.22294545  0.25778945     0.37200
N453        N  0.14191479  0.19039438  0.26392295    -0.89400
H454        H  0.10141618  0.22688266  0.29342595     0.18300
H455        H  0.16010319  0.28311410  0.21051216     0.18300
N456        N  0.11830704  0.31877138  0.23751223    -0.88500
H457        H  0.12076387  0.17852149  0.26051504     0.35600
H458        H  0.14824501  0.18800563  0.28745568     0.40700
H459        H  0.10012013  0.32819925  0.25087586     0.40400
H460        H  0.11057824  0.31921563  0.21427921     0.35200
C461        C  0.98358792  0.30250944  0.28000860    -0.26500
C462        C  0.99860567  0.28840109  0.30551459    -0.14600
C463        C  0.98054941  0.27396249  0.32922845     0.36100
C464        C  0.94787152  0.27598697  0.32786141    -0.25900
C465        C  0.93284303  0.29179000  0.30333627    -0.15200
C466        C  0.95089419  0.30460091  0.27864795     0.37200
N467        N  0.93716868  0.32108348  0.25272977    -0.89400
H468        H  0.99746630  0.31367749  0.26189286     0.18300
H469        H  0.93406148  0.26620675  0.34681708     0.18300
N470        N  0.99447074  0.25802608  0.35539395    -0.88500
H471        H  0.94434977  0.34444852  0.25419610     0.35600
H472        H  0.91277047  0.32117128  0.25381133     0.40700
H473        H  0.01883435  0.25728502  0.35351673     0.40400
H474        H  0.98694004  0.23473675  0.35461284     0.35200
C475        C  0.06736698  0.37875250  0.34914810    -0.26500
C476        C  0.08417309  0.35074601  0.35206884    -0.14600
C477        C  0.10774113  0.34821283  0.37509170     0.36100
C478        C  0.11238884  0.37319802  0.39618619    -0.25900
C479        C  0.09359437  0.40011031  0.39469534    -0.15200
C480        C  0.07187695  0.40348616  0.37013891     0.37200
N481        N  0.05425111  0.43195889  0.36686644    -0.89400
H482        H  0.05002751  0.38099521  0.33076776     0.18300
H483        H  0.12934708  0.37092051  0.41490294     0.18300
N484        N  0.12583297  0.31998542  0.37779126    -0.88500
H485        H  0.03902414  0.43051946  0.34775366     0.35600
H486        H  0.07022190  0.44979435  0.36174660     0.40700
H487        H  0.11053720  0.30195776  0.38416514     0.40400
H488        H  0.14220855  0.32205396  0.39587025     0.35200
C489        C  0.06139127  0.35047083  0.55283818    -0.26500
C490        C  0.07853505  0.35284427  0.58074999    -0.14600
C491        C  0.10296521  0.37511036  0.58303236     0.36100
C492        C  0.10870485  0.39544679  0.55776143    -0.25900
C493        C  0.09009992  0.39426617  0.53075155    -0.15200
C494        C  0.06695496  0.37086662  0.52779386     0.37200
N495        N  0.04896235  0.36817539  0.49944355    -0.89400
H496        H  0.04325493  0.33282307  0.55075464     0.18300
H497        H  0.12648717  0.41344224  0.55987933     0.18300
N498        N  0.12092167  0.37788915  0.61136572    -0.88500
H499        H  0.03278391  0.34986312  0.50112255     0.35600
H500        H  0.06443341  0.36222486  0.48135608     0.40700
H501        H  0.10570721  0.38517181  0.62917162     0.40400
H502        H  0.13797724  0.39532641  0.60912611     0.35200
C503        C  0.07241814  0.52620429  0.37268766    -0.26500
C504        C  0.09356660  0.53192140  0.39712477    -0.14600
C505        C  0.11167386  0.55951838  0.39698940     0.36100
C506        C  0.10686574  0.58177727  0.37321506    -0.25900
C507        C  0.08430539  0.57674700  0.34982062    -0.15200
C508        C  0.06809154  0.54799319  0.34866560     0.37200
N509        N  0.04701759  0.54126364  0.32325909    -0.89400
H510        H  0.05893771  0.50471254  0.37254048     0.18300
H511        H  0.11948290  0.60378783  0.37390242     0.18300
N512        N  0.13335360  0.56568555  0.42191206    -0.88500
H513        H  0.03691061  0.51912604  0.32596044     0.35600
H514        H  0.06029422  0.54043077  0.30265522     0.40700
H515        H  0.12004173  0.56896027  0.44219666     0.40400
H516        H  0.14520420  0.58675083  0.41800258     0.35200
C517        C  0.07050443  0.52499912  0.56122124    -0.26500
C518        C  0.09301984  0.52915519  0.53761862    -0.14600
C519        C  0.11276868  0.55574284  0.53867862     0.36100
C520        C  0.10754331  0.57888490  0.56134260    -0.25900
C521        C  0.08348303  0.57572543  0.58356043    -0.15200
C522        C  0.06592624  0.54762767  0.58444639     0.37200
N523        N  0.04400487  0.54099580  0.60905504    -0.89400
H524        H  0.05612515  0.50406676  0.56145584     0.18300
H525        H  0.12159485  0.60002557  0.56083724     0.18300
N526        N  0.13726784  0.56062924  0.51627886    -0.88500
H527        H  0.02534708  0.55668782  0.60810369     0.35600
H528        H  0.05541583  0.54364897  0.63055556     0.40700
H529        H  0.12748761  0.55994144  0.49391684     0.40400
H530        H  0.15344822  0.54240776  0.51826033     0.35200
C531        C  0.77883281  0.68613217  0.27064150    -0.26500
C532        C  0.77507051  0.68496233  0.23790672    -0.14600
C533        C  0.79635678  0.66683286  0.21984629     0.36100
C534        C  0.82057373  0.65067033  0.23482019    -0.25900
C535        C  0.82363102  0.65147020  0.26748326    -0.15200
C536        C  0.80275253  0.66950059  0.28559445     0.37200
N537        N  0.80593859  0.67075999  0.31912917    -0.89400
H538        H  0.76270338  0.69970143  0.28483189     0.18300
H539        H  0.83672307  0.63678796  0.22093277     0.18300
N540        N  0.79440773  0.66460771  0.18640827    -0.88500
H541        H  0.78851354  0.68486064  0.32904607     0.35600
H542        H  0.82735960  0.68152377  0.32413945     0.40700
H543        H  0.79457699  0.68719049  0.17702269     0.40400
H544        H  0.77353054  0.65335764  0.18038843     0.35200
C545        C  0.66899346  0.81782391  0.25243856    -0.26500
C546        C  0.66851647  0.81474470  0.28510355    -0.14600
C547        C  0.68344789  0.78912012  0.29937005     0.36100
C548        C  0.69794795  0.76645996  0.28044614    -0.25900
C549        C  0.69748757  0.76885583  0.24760242    -0.15200
C550        C  0.68302782  0.79510727  0.23353776     0.37200
N551        N  0.68274848  0.79977939  0.20030230    -0.89400
H552        H  0.65777309  0.83775895  0.24150982     0.18300
H553        H  0.70904465  0.74647471  0.29138211     0.18300
N554        N  0.68378917  0.78629078  0.33294392    -0.88500
H555        H  0.66933789  0.78221633  0.18981140     0.35600
H556        H  0.70574509  0.79852284  0.19192795     0.40700
H557        H  0.69655788  0.80519429  0.34188658     0.40400
H558        H  0.69564696  0.76599511  0.33968702     0.35200
C559        C  0.36874043  0.82648738  0.40377252    -0.26500
C560        C  0.39499008  0.84629774  0.40290697    -0.14600
C561        C  0.39645669  0.87008801  0.38013462     0.36100
C562        C  0.37202685  0.87359161  0.35869241    -0.25900
C563        C  0.34525117  0.85456170  0.35998015    -0.15200
C564        C  0.34360824  0.83073651  0.38302495     0.37200
N565        N  0.31614466  0.81193352  0.38735687    -0.89400
H566        H  0.36708296  0.80855926  0.42162842     0.18300
H567        H  0.37376130  0.89188577  0.34120611     0.18300
N568        N  0.42274403  0.89090359  0.37867587    -0.88500
H569        H  0.31280205  0.79785456  0.36764824     0.35600
H570        H  0.29682639  0.82673047  0.39007399     0.40700
H571        H  0.41449953  0.91375871  0.38174250     0.40400
H572        H  0.43247999  0.88932114  0.35622950     0.35200
C573        C  0.37190646  0.82711340  0.53891859    -0.26500
C574        C  0.39916228  0.84547505  0.54010074    -0.14600
C575        C  0.40300749  0.86743126  0.56452039     0.36100
C576        C  0.37854575  0.87224617  0.58592362    -0.25900
C577        C  0.35048549  0.85528997  0.58372792    -0.15200
C578        C  0.34733201  0.83193710  0.56043913     0.37200
N579        N  0.31887328  0.81408944  0.55800733    -0.89400
H580        H  0.36916831  0.81006294  0.52026992     0.18300
H581        H  0.38118623  0.88963894  0.60427189     0.18300
N582        N  0.43174496  0.88478216  0.56742237    -0.88500
H583        H  0.32044354  0.79782972  0.53970946     0.35600
H584        H  0.30086575  0.82956456  0.55213768     0.40700
H585        H  0.44961180  0.86873394  0.57209681     0.40400
H586        H  0.43076290  0.89999044  0.58664067     0.35200
C587        C  0.55681185  0.81752870  0.40215535    -0.26500
C588        C  0.53089711  0.83755315  0.39961090    -0.14600
C589        C  0.52999273  0.85989598  0.37538040     0.36100
C590        C  0.55598051  0.86342060  0.35565340    -0.25900
C591        C  0.58298350  0.84518586  0.35965456    -0.15200
C592        C  0.58313782  0.82133130  0.38255582     0.37200
N593        N  0.61042709  0.80212016  0.38680382    -0.89400
H594        H  0.55734813  0.80029275  0.42073608     0.18300
H595        H  0.55548669  0.88106461  0.33745108     0.18300
N596        N  0.50277872  0.87924169  0.37124838    -0.88500
H597        H  0.60667250  0.78575540  0.40460353     0.35600
H598        H  0.62865034  0.81665142  0.39433638     0.40700
H599        H  0.48425792  0.86445880  0.36507804     0.40400
H600        H  0.50594842  0.89469493  0.35254145     0.35200
C601        C  0.56211552  0.85388864  0.52914278    -0.26500
C602        C  0.53402269  0.83827072  0.53581393    -0.14600
C603        C  0.52862537  0.82671651  0.56621567     0.36100
C604        C  0.55084569  0.83224710  0.58989855    -0.25900
C605        C  0.57824930  0.84928216  0.58349716    -0.15200
C606        C  0.58433101  0.85925167  0.55252006     0.37200
N607        N  0.61290585  0.87479538  0.54415985    -0.89400
H608        H  0.56647414  0.86264828  0.50570914     0.18300
H609        H  0.54608042  0.82442183  0.61357421     0.18300
N610        N  0.49989229  0.81098344  0.57347237    -0.88500
H611        H  0.63167309  0.86055977  0.55075058     0.35600
H612        H  0.61443107  0.89592856  0.55640771     0.40700
H613        H  0.48856945  0.82354323  0.59124375     0.40400
H614        H  0.50539969  0.78883138  0.58223441     0.35200
C615        C  0.65377378  0.98320263  0.63881086    -0.26500
C616        C  0.62587464  0.99943985  0.64493477    -0.14600
C617        C  0.59922286  0.98300013  0.65534891     0.36100
C618        C  0.59988563  0.95024541  0.65609808    -0.25900
C619        C  0.62671552  0.93377164  0.64676698    -0.15200
C620        C  0.65443796  0.95028247  0.63946872     0.37200
N621        N  0.68243518  0.93363145  0.63085816    -0.89400
H622        H  0.67423866  0.99605785  0.63101759     0.18300
H623        H  0.57884874  0.93740442  0.66222608     0.18300
N624        N  0.57109053  0.99970371  0.66336924    -0.88500
H625        H  0.70069861  0.94929554  0.62626401     0.35600
H626        H  0.67798414  0.92172878  0.60989117     0.40700
H627        H  0.57607087  0.01366099  0.68289970     0.40400
H628        H  0.55344368  0.98414405  0.67018499     0.35200
C629        C  0.27329692  0.98641594  0.60027096    -0.26500
C630        C  0.28286086  0.00380911  0.62648063    -0.14600
C631        C  0.28927903  0.98831815  0.65492320     0.36100
C632        C  0.28868556  0.95535487  0.65566814    -0.25900
C633        C  0.28223878  0.93804107  0.62842604    -0.15200
C634        C  0.27292787  0.95365123  0.60095628     0.37200
N635        N  0.26483882  0.93601805  0.57338596    -0.89400
H636        H  0.26790120  0.99847893  0.57862433     0.18300
H637        H  0.29567911  0.94316492  0.67676424     0.18300
N638        N  0.29818963  0.00592474  0.68224700    -0.88500
H639        H  0.25893903  0.95101523  0.55499484     0.35600
H640        H  0.24473463  0.92303427  0.57860664     0.40700
H641        H  0.31958963  0.01683119  0.67743053     0.40400
H642        H  0.30206492  0.99095183  0.70119306     0.35200
C643        C  0.66333174  0.97718322  0.33857432    -0.26500
C644        C  0.65516858  0.99169286  0.31028392    -0.14600
C645        C  0.64897708  0.97328712  0.28352195     0.36100
C646        C  0.64866746  0.94054235  0.28631393    -0.25900
C647        C  0.65376046  0.92625716  0.31541571    -0.15200
C648        C  0.66259595  0.94452419  0.34143241     0.37200
N649        N  0.66932314  0.92982764  0.37092679    -0.89400
H650        H  0.66815763  0.99151141  0.35900891     0.18300
H651        H  0.64207953  0.92624006  0.26636757     0.18300
N652        N  0.64096106  0.98788237  0.25428534    -0.88500
H653        H  0.67515600  0.94662740  0.38780598     0.35600
H654        H  0.68917901  0.91585335  0.36774986     0.40700
H655        H  0.61965502  0.99955093  0.25740887     0.40400
H656        H  0.63719887  0.97096408  0.23694060     0.35200
C657        C  0.28316635  0.13001977  0.24723416    -0.26500
C658        C  0.26516893  0.11163877  0.26764381    -0.14600
C659        C  0.23273127  0.11673245  0.26974461     0.36100
C660        C  0.21881553  0.14010857  0.25153881    -0.25900
C661        C  0.23677004  0.15921180  0.23149780    -0.15200
C662        C  0.26949099  0.15368675  0.22925812     0.37200
N663        N  0.28977896  0.17230179  0.21010653    -0.89400
H664        H  0.30823161  0.12627211  0.24565183     0.18300
H665        H  0.19380976  0.14381633  0.25383155     0.18300
N666        N  0.21406982  0.09920651  0.29144734    -0.88500
H667        H  0.28754823  0.19578301  0.21670510     0.35600
H668        H  0.28326962  0.16951439  0.18669234     0.40700
H669        H  0.19635387  0.08790448  0.27887131     0.40400
H670        H  0.20349531  0.11498606  0.30696823     0.35200
C671        C  0.29085194  0.98413946  0.28010994    -0.26500
C672        C  0.27965713  0.00147400  0.30571239    -0.14600
C673        C  0.26709159  0.98581449  0.33197659     0.36100
C674        C  0.26771843  0.95295945  0.33283085    -0.25900
C675        C  0.28093737  0.93572555  0.30814645    -0.15200
C676        C  0.29182792  0.95136130  0.28124779     0.37200
N677        N  0.30588183  0.93413088  0.25604708    -0.89400
H678        H  0.30091741  0.99614254  0.26012444     0.18300
H679        H  0.25934336  0.94076299  0.35345586     0.18300
N680        N  0.25435054  0.00331728  0.35786447    -0.88500
H681        H  0.32890651  0.94203496  0.25327800     0.35600
H682        H  0.29361522  0.93929043  0.23552316     0.40700
H683        H  0.27276067  0.01506155  0.36890464     0.40400
H684        H  0.24488772  0.98818178  0.37462340     0.35200
C685        C  0.36887171  0.10773658  0.39482440    -0.26500
C686        C  0.39718437  0.09215387  0.38909927    -0.14600
C687        C  0.40109022  0.07452754  0.36147882     0.36100
C688        C  0.37595579  0.07166517  0.34063200    -0.25900
C689        C  0.34689917  0.08558330  0.34718694    -0.15200
C690        C  0.34333090  0.10419892  0.37451785     0.37200
N691        N  0.31407593  0.11848962  0.38329383    -0.89400
H692        H  0.36591528  0.12106224  0.41628736     0.18300
H693        H  0.37856480  0.05739997  0.31973580     0.18300
N694        N  0.43032076  0.05899396  0.35518903    -0.88500
H695        H  0.30683800  0.10835490  0.40438577     0.35600
H696        H  0.29641872  0.11386922  0.36710371     0.40700
H697        H  0.44747945  0.07626116  0.35246575     0.40400
H698        H  0.42925381  0.04675781  0.33396001     0.35200
C699        C  0.37047954  0.10013496  0.57535302    -0.26500
C700        C  0.34322058  0.08348242  0.56749167    -0.14600
C701        C  0.33917256  0.07278154  0.53634048     0.36100
C702        C  0.36329792  0.07677370  0.51459034    -0.25900
C703        C  0.39116722  0.09195496  0.52290336    -0.15200
C704        C  0.39448993  0.10470892  0.55319518     0.37200
N705        N  0.42285443  0.12062060  0.56182394    -0.89400
H706        H  0.37345787  0.10863778  0.59911164     0.18300
H707        H  0.36044831  0.06756981  0.49105815     0.18300
N708        N  0.31063582  0.05846694  0.52590871    -0.88500
H709        H  0.42205992  0.12743864  0.58536231     0.35600
H710        H  0.42408097  0.14122946  0.54872298     0.40700
H711        H  0.29201326  0.07342893  0.53132129     0.40400
H712        H  0.30727618  0.03728319  0.53753491     0.35200
C713        C  0.58308175  0.09756008  0.37026230    -0.26500
C714        C  0.58176553  0.07187142  0.34972067    -0.14600
C715        C  0.55493933  0.05252187  0.34953823     0.36100
C716        C  0.53103422  0.05796314  0.37137329    -0.25900
C717        C  0.53287224  0.08281630  0.39285588    -0.15200
C718        C  0.55888890  0.10321639  0.39197520     0.37200
N719        N  0.56129706  0.12873086  0.41386854    -0.89400
H720        H  0.60368258  0.11239050  0.37032588     0.18300
H721        H  0.51077681  0.04264968  0.37164230     0.18300
N722        N  0.55217153  0.02733866  0.32725127    -0.88500
H723        H  0.58174757  0.14160517  0.40983954     0.35600
H724        H  0.56339899  0.11912610  0.43628223     0.40700
H725        H  0.55131513  0.03725920  0.30489694     0.40400
H726        H  0.53111169  0.01522714  0.33041126     0.35200
C727        C  0.55418465  0.10025594  0.57664776    -0.26500
C728        C  0.57648039  0.07625614  0.57367328    -0.14600
C729        C  0.57624599  0.05703305  0.54665411     0.36100
C730        C  0.55258960  0.06088141  0.52429222    -0.25900
C731        C  0.52976415  0.08417832  0.52771220    -0.15200
C732        C  0.53081216  0.10448106  0.55383148     0.37200
N733        N  0.50755254  0.12849433  0.55765144    -0.89400
H734        H  0.55429759  0.11496715  0.59736986     0.18300
H735        H  0.55212698  0.04578472  0.50383725     0.18300
N736        N  0.60009124  0.03368922  0.54202272    -0.88500
H737        H  0.51168793  0.14140249  0.57808382     0.35600
H738        H  0.48598356  0.11734720  0.56073536     0.40700
H739        H  0.62151919  0.04533704  0.53975760     0.40400
H740        H  0.59646717  0.02149641  0.52105969     0.35200
C741        C  0.38518350  0.39838248  0.82229234    -0.26500
C742        C  0.41145446  0.39703715  0.84200419    -0.14600
C743        C  0.41332393  0.37324739  0.86478372     0.36100
C744        C  0.38836300  0.35211615  0.86823478    -0.25900
C745        C  0.36127713  0.35437293  0.84971122    -0.15200
C746        C  0.35976778  0.37765802  0.82628586     0.37200
N747        N  0.33198280  0.38110749  0.80764219    -0.89400
H748        H  0.38378654  0.41669812  0.80482651     0.18300
H749        H  0.38978052  0.33403873  0.88594947     0.18300
N750        N  0.44054598  0.37070714  0.88441216    -0.88500
H751        H  0.33466030  0.39935370  0.79156836     0.35600
H752        H  0.31372998  0.38760881  0.82268004     0.40700
H753        H  0.45959705  0.36524393  0.86996189     0.40400
H754        H  0.43810835  0.35214226  0.90015724     0.35200
C755        C  0.57575529  0.40676098  0.85556182    -0.26500
C756        C  0.54943184  0.39841087  0.83770906    -0.14600
C757        C  0.54731651  0.36777663  0.82503587     0.36100
C758        C  0.57094185  0.34604092  0.83193558    -0.25900
C759        C  0.59610291  0.35394274  0.85157461    -0.15200
C760        C  0.59923446  0.38493855  0.86242752     0.37200
N761        N  0.62594670  0.39389949  0.88087550    -0.89400
H762        H  0.57754210  0.43031849  0.86493219     0.18300
H763        H  0.56863910  0.32223301  0.82338169     0.18300
N764        N  0.52111994  0.35727166  0.80663308    -0.88500
H765        H  0.62461555  0.41754030  0.88715885     0.35600
H766        H  0.64582103  0.39148032  0.86671738     0.40700
H767        H  0.50447036  0.37479559  0.80353608     0.40400
H768        H  0.50993760  0.33942495  0.81911547     0.35200
C769        C  0.41595528  0.55726995  0.86349482    -0.26500
C770        C  0.41278086  0.53445032  0.83998302    -0.14600
C771        C  0.38590940  0.53483273  0.82068238     0.36100
C772        C  0.36205326  0.55692308  0.82661138    -0.25900
C773        C  0.36476653  0.57892157  0.85101271    -0.15200
C774        C  0.39259322  0.57976056  0.86887651     0.37200
N775        N  0.39697209  0.60339693  0.89254252    -0.89400
H776        H  0.43682350  0.55745269  0.87791803     0.18300
H777        H  0.34080189  0.55631896  0.81278913     0.18300
N778        N  0.38209696  0.51186006  0.79631630    -0.88500
H779        H  0.41860307  0.60066931  0.90364929     0.35600
H780        H  0.39759256  0.62509905  0.88128220     0.40700
H781        H  0.39868752  0.51671295  0.77894693     0.40400
H782        H  0.36019277  0.51421151  0.78566325     0.35200
C783        C  0.57918960  0.52258834  0.84612472    -0.26500
C784        C  0.55019592  0.53094931  0.83313513    -0.14600
C785        C  0.54547878  0.56203713  0.82261451     0.36100
C786        C  0.56920117  0.58431112  0.82726079    -0.25900
C787        C  0.59723455  0.57635438  0.84229262    -0.15200
C788        C  0.60273752  0.54490855  0.85066047     0.37200
N789        N  0.63180748  0.53522356  0.86427435    -0.89400
H790        H  0.58314475  0.49872840  0.85378143     0.18300
H791        H  0.56486715  0.60849343  0.82096233     0.18300
N792        N  0.51637370  0.57251532  0.80937094    -0.88500
H793        H  0.63510201  0.54727271  0.88534456     0.35600
H794        H  0.64989955  0.54138359  0.84892170     0.40700
H795        H  0.49965623  0.55474614  0.80842196     0.40400
H796        H  0.52084212  0.57923999  0.78624902     0.35200
C797        C  0.64263963  0.67824948  0.13449452    -0.26500
C798        C  0.65972777  0.66535755  0.10955023    -0.14600
C799        C  0.69264356  0.66797722  0.10915774     0.36100
C800        C  0.70788657  0.68270616  0.13436593    -0.25900
C801        C  0.69083585  0.69499126  0.15973141    -0.15200
C802        C  0.65774200  0.69320770  0.15955435     0.37200
N803        N  0.63962426  0.70487085  0.18553217    -0.89400
H804        H  0.61733410  0.67612692  0.13460749     0.18300
H805        H  0.73323285  0.68414257  0.13450653     0.18300
N806        N  0.71046392  0.65481446  0.08372506    -0.88500
H807        H  0.61606265  0.69862729  0.18312452     0.31200
H808        H  0.64019114  0.72930281  0.18451125     0.40700
H809        H  0.70726021  0.63054904  0.08415293     0.40400
H810        H  0.73440013  0.65879914  0.08701663     0.35200
C811        C  0.66015924  0.64436925  0.94861867    -0.26500
C812        C  0.63230975  0.64251536  0.93128635    -0.14600
C813        C  0.60324975  0.64460177  0.94696471     0.36100
C814        C  0.60262907  0.64530540  0.97980110    -0.25900
C815        C  0.63041062  0.64397384  0.99729666    -0.15200
C816        C  0.65955052  0.64485926  0.98157144     0.37200
N817        N  0.68834314  0.64438843  0.99897655    -0.89400
H818        H  0.68245774  0.64316326  0.93650487     0.18300
H819        H  0.58028484  0.64545472  0.99190567     0.18300
N820        N  0.57449516  0.64496017  0.92946656    -0.88500
H821        H  0.70760820  0.64534279  0.98383855     0.35600
H822        H  0.68963088  0.62290634  0.01058813     0.40700
H823        H  0.57431844  0.66540484  0.91605291     0.40400
H824        H  0.55519528  0.64622361  0.94454143     0.35200
C825        C  0.62452873  0.27024448  0.98855368    -0.26500
C826        C  0.63821926  0.29445765  0.00597481    -0.14600
C827        C  0.65551643  0.31807179  0.99052502     0.36100
C828        C  0.65723779  0.31772084  0.95780886    -0.25900
C829        C  0.64190528  0.29459836  0.94018350    -0.15200
C830        C  0.62589092  0.27006819  0.95576896     0.37200
N831        N  0.60888143  0.24601066  0.93939065    -0.89400
H832        H  0.61091392  0.25241557  0.00045196     0.18300
H833        H  0.66950313  0.33650848  0.94592008     0.18300
N834        N  0.67079638  0.34314371  0.00710346    -0.88500
H835        H  0.61955294  0.22460915  0.94450674     0.35600
H836        H  0.60995499  0.24874106  0.91515038     0.40700
H837        H  0.66898200  0.34055824  0.03135177     0.40400
H838        H  0.65936398  0.36397070  0.00129615     0.35200
C839        C  0.28815390  0.60200676  0.98326069    -0.26500
C840        C  0.29682272  0.63011514  0.99792628    -0.14600
C841        C  0.30238100  0.65705811  0.97938792     0.36100
C842        C  0.30096074  0.65447632  0.94663607    -0.25900
C843        C  0.29491456  0.62563254  0.93201092    -0.15200
C844        C  0.28706986  0.59939421  0.95062900     0.37200
N845        N  0.27848017  0.56966453  0.93728550    -0.89400
H846        H  0.28337820  0.58145997  0.99736430     0.18300
H847        H  0.30718085  0.67459496  0.93248279     0.18300
N848        N  0.31194892  0.68659683  0.99251152    -0.88500
H849        H  0.29648368  0.55382600  0.94212824     0.35600
H850        H  0.27612902  0.57088054  0.91297743     0.40700
H851        H  0.31448097  0.68564497  0.01677187     0.40400
H852        H  0.29423986  0.70282047  0.98788203     0.35200
C853        C  0.27101653  0.24818866  0.10867481    -0.26500
C854        C  0.26470981  0.28029736  0.10661860    -0.14600
C855        C  0.24126817  0.29359505  0.12569958     0.36100
C856        C  0.22580122  0.27498602  0.14764645    -0.25900
C857        C  0.23315494  0.24304490  0.15115518    -0.15200
C858        C  0.25528863  0.22926947  0.13059273     0.37200
N859        N  0.26166153  0.19626849  0.13186672    -0.89400
H860        H  0.28853449  0.23797689  0.09334211     0.18300
H861        H  0.20853035  0.28600820  0.16268027     0.18300
N862        N  0.23261791  0.32589739  0.12314623    -0.88500
H863        H  0.27870129  0.19005690  0.11535458     0.35600
H864        H  0.24114143  0.18452637  0.12546484     0.40700
H865        H  0.22577362  0.33017118  0.10003695     0.40400
H866        H  0.25217657  0.33972875  0.12814289     0.35200
C867        C  0.28843773  0.28532674  0.98112976    -0.26500
C868        C  0.28797260  0.31430134  0.99680839    -0.14600
C869        C  0.28475473  0.34208271  0.97927216     0.36100
C870        C  0.28564388  0.34059475  0.94649561    -0.25900
C871        C  0.28954900  0.31196246  0.93077173    -0.15200
C872        C  0.28938276  0.28385850  0.94813679     0.37200
N873        N  0.29189590  0.25415966  0.93241560    -0.89400
H874        H  0.29027111  0.26395262  0.99461716     0.18300
H875        H  0.28490620  0.36209568  0.93307866     0.18300
N876        N  0.28170945  0.37181345  0.99489251    -0.88500
H877        H  0.29116462  0.23583337  0.94859864     0.35600
H878        H  0.31389609  0.25319609  0.92165579     0.40700
H879        H  0.26065424  0.37149507  0.00743678     0.40400
H880        H  0.27997606  0.38998408  0.97861787     0.35200
C881        C  0.39421159  0.37837811  0.11134681    -0.26500
C882        C  0.39235841  0.40818352  0.09770270    -0.14600
C883        C  0.36605347  0.41608999  0.07947568     0.36100
C884        C  0.34283469  0.39356710  0.07392933    -0.25900
C885        C  0.34556389  0.36303398  0.08567258    -0.15200
C886        C  0.37122475  0.35544569  0.10510259     0.37200
N887        N  0.37468775  0.32420380  0.11703321    -0.89400
H888        H  0.41462843  0.37236168  0.12511822     0.18300
H889        H  0.32291808  0.39952899  0.05940829     0.18300
N890        N  0.36350761  0.44677943  0.06593277    -0.88500
H891        H  0.39487837  0.32249778  0.13075078     0.35600
H892        H  0.37794829  0.30923625  0.09787410     0.40700
H893        H  0.36157292  0.46284094  0.08433821     0.40400
H894        H  0.34295582  0.44871452  0.05279561     0.35200
C895        C  0.52062193  0.36797703  0.07731470    -0.26500
C896        C  0.52887327  0.39400349  0.09572016    -0.14600
C897        C  0.55850923  0.39466984  0.11070947     0.36100
C898        C  0.57903026  0.36944492  0.10647458    -0.25900
C899        C  0.57132746  0.34424287  0.08685763    -0.15200
C900        C  0.54150298  0.34299251  0.07283016     0.37200
N901        N  0.53278016  0.31655411  0.05381801    -0.89400
H902        H  0.49788312  0.36736813  0.06606181     0.18300
H903        H  0.60207229  0.37050390  0.11706552     0.18300
N904        N  0.56947270  0.42092919  0.12886573    -0.88500
H905        H  0.51005897  0.31929970  0.04515132     0.35600
H906        H  0.53237285  0.29686250  0.06831960     0.40700
H907        H  0.55368129  0.43947596  0.12893917     0.40400
H908        H  0.58964300  0.42953738  0.11791884     0.35200
C909        C  0.35229741  0.56139303  0.10426226    -0.26500
C910        C  0.35992252  0.58729828  0.08559867    -0.14600
C911        C  0.39119936  0.59144705  0.07559974     0.36100
C912        C  0.41336987  0.56830637  0.08190531    -0.25900
C913        C  0.40530819  0.54125487  0.09863585    -0.15200
C914        C  0.37456588  0.53825081  0.11102018     0.37200
N915        N  0.36434225  0.51141783  0.12860481    -0.89400
H916        H  0.32839491  0.55828702  0.11231485     0.18300
H917        H  0.43699535  0.57109068  0.07295325     0.18300
N918        N  0.40118740  0.61905038  0.05936798    -0.88500
H919        H  0.35850485  0.51911668  0.15114992     0.35600
H920        H  0.38194294  0.49477028  0.13119269     0.40700
H921        H  0.39528210  0.63854612  0.07301467     0.40400
H922        H  0.38948828  0.62056054  0.03798587     0.35200
C923        C  0.54285917  0.55645269  0.11275647    -0.26500
C924        C  0.54273570  0.52929487  0.09419656    -0.14600
C925        C  0.56613174  0.52529345  0.07109512     0.36100
C926        C  0.58795494  0.54932023  0.06575487    -0.25900
C927        C  0.58675778  0.57751998  0.08271928    -0.15200
C928        C  0.56428189  0.58089194  0.10691840     0.37200
N929        N  0.56214674  0.60968033  0.12432873    -0.89400
H930        H  0.52484696  0.55951698  0.13042237     0.18300
H931        H  0.60554993  0.54636114  0.04764681     0.18300
N932        N  0.56725819  0.49701678  0.05275178    -0.88500
H933        H  0.54442079  0.60834408  0.14121193     0.35600
H934        H  0.55560864  0.62730616  0.10869507     0.40700
H935        H  0.57215838  0.47854049  0.06800273     0.40400
H936        H  0.58566435  0.49785949  0.03656965     0.35200
C937        C  0.79745414  0.25554634  0.29466429    -0.26500
C938        C  0.82016111  0.27146528  0.27707894    -0.14600
C939        C  0.81829678  0.27151677  0.24408050     0.36100
C940        C  0.79357155  0.25547547  0.22935813    -0.25900
C941        C  0.77085209  0.23956676  0.24707377    -0.15200
C942        C  0.77279231  0.23981630  0.28002416     0.37200
N943        N  0.74910942  0.22517602  0.29879244    -0.89400
H944        H  0.79866813  0.25565124  0.32004093     0.18300
H945        H  0.79196510  0.25542772  0.20401667     0.18300
N946        N  0.84105665  0.28830862  0.22578754    -0.88500
H947        H  0.73913578  0.24226026  0.31329190     0.35600
H948        H  0.75992258  0.20854156  0.31307164     0.40700
H949        H  0.83872783  0.31209723  0.23113771     0.40400
H950        H  0.83631185  0.28593944  0.20186741     0.35200
C951        C  0.69139391  0.27152932  0.16343139    -0.26500
C952        C  0.68956559  0.23875221  0.16584726    -0.14600
C953        C  0.67127633  0.22191645  0.14397898     0.36100
C954        C  0.65493715  0.23805362  0.12063408    -0.25900
C955        C  0.65624575  0.27073980  0.11883660    -0.15200
C956        C  0.67488390  0.28763001  0.14030863     0.37200
N957        N  0.67799756  0.32100230  0.13876137    -0.89400
H958        H  0.70529515  0.28489189  0.17995599     0.18300
H959        H  0.64090567  0.22499808  0.10395841     0.18300
N960        N  0.66951527  0.18844464  0.14503060    -0.88500
H961        H  0.65605250  0.33119178  0.14234439     0.35600
H962        H  0.68592749  0.32698017  0.11636368     0.40700
H963        H  0.67740040  0.17964694  0.12353272     0.40400
H964        H  0.64599699  0.18211255  0.14768199     0.35200
C965        C  0.69748312  0.10622762  0.27451174    -0.26500
C966        C  0.66489033  0.10266785  0.27267079    -0.14600
C967        C  0.64735762  0.12333430  0.25388096     0.36100
C968        C  0.66253120  0.14841497  0.23910869    -0.25900
C969        C  0.69492541  0.15322751  0.24248715    -0.15200
C970        C  0.71266639  0.13119225  0.25979545     0.37200
N971        N  0.74603976  0.13316828  0.26269931    -0.89400
H972        H  0.71116824  0.09015112  0.28853168     0.18300
H973        H  0.64872599  0.16476698  0.22555447     0.18300
N974        N  0.61419498  0.11886188  0.25003827    -0.88500
H975        H  0.75184959  0.15304630  0.27574256     0.35600
H976        H  0.75587551  0.13476769  0.24030020     0.40700
H977        H  0.61090943  0.09752489  0.23843699     0.40400
H978        H  0.60474789  0.13620055  0.23562444     0.35200
C979        C  0.27847519  0.69584528  0.78000032    -0.26500
C980        C  0.24761005  0.68739059  0.77198247    -0.14600
C981        C  0.23284309  0.66288354  0.78889470     0.36100
C982        C  0.24966697  0.64681507  0.81215736    -0.25900
C983        C  0.28064178  0.65485788  0.81929881    -0.15200
C984        C  0.29495255  0.67999753  0.80340931     0.37200
N985        N  0.32595089  0.69033574  0.81104565    -0.89400
H986        H  0.29019946  0.71470770  0.76780388     0.18300
H987        H  0.23857900  0.62784463  0.82485366     0.18300
N988        N  0.20080775  0.65449628  0.78276721    -0.88500
H989        H  0.34157996  0.67194897  0.80703806     0.35600
H990        H  0.32650655  0.69606238  0.83487845     0.40700
H991        H  0.18685053  0.67350780  0.78940119     0.40400
H992        H  0.19386500  0.63565776  0.79676035     0.35200
C993        C  0.22668768  0.79045372  0.67198336    -0.26500
C994        C  0.24359905  0.77521367  0.69591315    -0.14600
C995        C  0.27343012  0.78747487  0.70436371     0.36100
C996        C  0.28590342  0.81283741  0.68786767    -0.25900
C997        C  0.26948256  0.82667610  0.66322959    -0.15200
C998        C  0.23941587  0.81584572  0.65545254     0.37200
N999        N  0.22231716  0.83015244  0.63026101    -0.89400
H1000       H  0.20369337  0.78207719  0.66537873     0.18300
H1001       H  0.30906065  0.82138530  0.69383680     0.18300
N1002       N  0.29221800  0.77450007  0.72883919    -0.88500
H1003       H  0.20042037  0.81951207  0.62756624     0.35600
H1004       H  0.23471070  0.82598464  0.60950435     0.40700
H1005       H  0.29762750  0.75130561  0.72321441     0.40400
H1006       H  0.27973855  0.77558048  0.74991148     0.35200
C1007       C  0.15895607  0.65844252  0.69635864    -0.26500
C1008       C  0.16548563  0.69021007  0.69049044    -0.14600
C1009       C  0.14635279  0.70661599  0.66901367     0.36100
C1010       C  0.12177380  0.69104580  0.65379051    -0.25900
C1011       C  0.11586087  0.65926754  0.65923356    -0.15200
C1012       C  0.13443333  0.64281998  0.68093250     0.37200
N1013       N  0.12832146  0.61031535  0.68716887    -0.89400
H1014       H  0.17329367  0.64547908  0.71271845     0.18300
H1015       H  0.10761445  0.70374694  0.63703299     0.18300
N1016       N  0.15158549  0.73907702  0.66247265    -0.88500
H1017       H  0.14420395  0.60157500  0.70357940     0.35600
H1018       H  0.10609924  0.60877830  0.69739131     0.40700
H1019       H  0.13109669  0.75137304  0.66786301     0.40400
H1020       H  0.15584548  0.74141297  0.63844916     0.35200
C1021       C  0.26185251  0.23259247  0.78965828    -0.26500
C1022       C  0.24347067  0.24968870  0.76843377    -0.14600
C1023       C  0.24117367  0.28259304  0.77201550     0.36100
C1024       C  0.25713746  0.29746602  0.79669505    -0.25900
C1025       C  0.27528768  0.28030886  0.81786387    -0.15200
C1026       C  0.27754814  0.24751565  0.81435086     0.37200
N1027       N  0.29615857  0.22895567  0.83510751    -0.89400
H1028       H  0.26388355  0.20741608  0.78718100     0.18300
H1029       H  0.25568549  0.32267221  0.79932287     0.18300
N1030       N  0.22333188  0.30093967  0.75020006    -0.88500
H1031       H  0.28743407  0.23160544  0.85785531     0.35600
H1032       H  0.31912832  0.23744268  0.83456909     0.40700
H1033       H  0.23434979  0.29922388  0.72835615     0.40400
H1034       H  0.22375236  0.32462711  0.75643247     0.35200
C1035       C  0.14902031  0.23681062  0.66178999    -0.26500
C1036       C  0.15616309  0.24330280  0.69331911    -0.14600
C1037       C  0.13670001  0.26406440  0.71040077     0.36100
C1038       C  0.11240427  0.27979706  0.69487465    -0.25900
C1039       C  0.10678526  0.27474586  0.66293702    -0.15200
C1040       C  0.12448713  0.25224647  0.64643204     0.37200
N1041       N  0.11709918  0.24464835  0.61441092    -0.89400
H1042       H  0.16326429  0.22040756  0.64862972     0.18300
H1043       H  0.09813019  0.29656572  0.70756463     0.18300
N1044       N  0.14161347  0.26916640  0.74334140    -0.88500
H1045       H  0.13071158  0.22582589  0.60661615     0.35600
H1046       H  0.12343926  0.26366322  0.60044572     0.40700
H1047       H  0.13723757  0.24796538  0.75474768     0.40400
H1048       H  0.12542052  0.28528002  0.75221597     0.35200
C1049       C  0.28792553  0.13868326  0.66866180    -0.26500
C1050       C  0.26900921  0.11788714  0.65167287    -0.14600
C1051       C  0.23631072  0.12175090  0.65207757     0.36100
C1052       C  0.22300276  0.14612320  0.66966472    -0.25900
C1053       C  0.24182315  0.16697063  0.68696219    -0.15200
C1054       C  0.27468754  0.16310221  0.68629765     0.37200
N1055       N  0.29483883  0.18436987  0.70266006    -0.89400
H1056       H  0.31316365  0.13594894  0.66822397     0.18300
H1057       H  0.19776422  0.14879920  0.66958411     0.18300
N1058       N  0.21663008  0.10149909  0.63392401    -0.88500
H1059       H  0.30993621  0.19466816  0.68633906     0.35600
H1060       H  0.30838456  0.17144949  0.71838356     0.40700
H1061       H  0.20392451  0.11528850  0.61823532     0.40400
H1062       H  0.20071727  0.09074067  0.64912903     0.35200
C1063       C  0.71153204  0.24898528  0.79792611    -0.26500
C1064       C  0.69204728  0.23336209  0.77643891    -0.14600
C1065       C  0.65950208  0.23187997  0.78237790     0.36100
C1066       C  0.64705366  0.24703478  0.80868676    -0.25900
C1067       C  0.66635907  0.26381418  0.82922233    -0.15200
C1068       C  0.69904397  0.26408377  0.82425604     0.37200
N1069       N  0.71987393  0.28066050  0.84469934    -0.89400
H1070       H  0.73658141  0.25006961  0.79389805     0.18300
H1071       H  0.62191067  0.24691068  0.81234056     0.18300
N1072       N  0.63869420  0.21656293  0.76095148    -0.88500
H1073       H  0.71809527  0.27101092  0.86710271     0.35600
H1074       H  0.71286820  0.30408633  0.84577005     0.40700
H1075       H  0.62243319  0.23301617  0.75301247     0.40400
H1076       H  0.62651507  0.19922113  0.77321510     0.35200
C1077       C  0.79193203  0.25477253  0.71218593    -0.26500
C1078       C  0.77010831  0.24031579  0.69218554    -0.14600
C1079       C  0.77317466  0.24461603  0.65938716     0.36100
C1080       C  0.79692728  0.26390197  0.64769070    -0.25900
C1081       C  0.81810521  0.27900892  0.66777886    -0.15200
C1082       C  0.81580585  0.27411199  0.70039957     0.37200
N1083       N  0.83706192  0.28953402  0.72150760    -0.89400
H1084       H  0.78993422  0.25153397  0.73729164     0.18300
H1085       H  0.79873894  0.26729721  0.62258439     0.18300
N1086       N  0.75204415  0.23074790  0.63732875    -0.88500
H1087       H  0.83230533  0.28328350  0.74471076     0.35600
H1088       H  0.83307645  0.31362025  0.71984082     0.40700
H1089       H  0.72917564  0.23747789  0.64296932     0.40400
H1090       H  0.75405175  0.20642169  0.63870467     0.35200
C1091       C  0.69253678  0.15477839  0.65590695    -0.26500
C1092       C  0.68716205  0.15911601  0.68817811    -0.14600
C1093       C  0.66544738  0.13926729  0.70365283     0.36100
C1094       C  0.64934084  0.11638374  0.68639449    -0.25900
C1095       C  0.65449699  0.11251143  0.65420572    -0.15200
C1096       C  0.67648146  0.13184872  0.63885164     0.37200
N1097       N  0.68359796  0.12823731  0.60621634    -0.89400
H1098       H  0.70903414  0.16957556  0.64357927     0.18300
H1099       H  0.63266487  0.10126870  0.69816109     0.18300
N1100       N  0.65993508  0.14202687  0.73680948    -0.88500
H1101       H  0.66347945  0.13284865  0.59316755     0.35600
H1102       H  0.69041581  0.10507011  0.60218085     0.40700
H1103       H  0.68058885  0.13558550  0.74822140     0.40400
H1104       H  0.64268235  0.12626916  0.74416278     0.35200
C1105       C  0.22422951  0.79093831  0.26303314    -0.26500
C1106       C  0.24265366  0.77384230  0.24162209    -0.14600
C1107       C  0.27445090  0.78236757  0.23731881     0.36100
C1108       C  0.28692738  0.80739446  0.25478477    -0.25900
C1109       C  0.26851822  0.82370242  0.27658668    -0.15200
C1110       C  0.23682379  0.81540563  0.28063283     0.37200
N1111       N  0.21724307  0.83050152  0.30342266    -0.89400
H1112       H  0.19983881  0.78492979  0.26668568     0.18300
H1113       H  0.31134683  0.81377611  0.25198694     0.18300
N1114       N  0.29427120  0.76513958  0.21616777    -0.88500
H1115       H  0.21544323  0.85421727  0.29782877     0.35600
H1116       H  0.22780165  0.82845038  0.32540951     0.40700
H1117       H  0.29703692  0.74265011  0.22537404     0.40400
H1118       H  0.31665792  0.77504424  0.21525657     0.35200
C1119       C  0.27880541  0.69208437  0.11415778    -0.26500
C1120       C  0.27195929  0.66049599  0.10862647    -0.14600
C1121       C  0.24860410  0.64539584  0.12654702     0.36100
C1122       C  0.23392047  0.66190427  0.15077921    -0.25900
C1123       C  0.24170017  0.69325038  0.15754696    -0.15200
C1124       C  0.26374420  0.70880162  0.13824449     0.37200
N1125       N  0.27094763  0.74132656  0.14313316    -0.89400
H1126       H  0.29649446  0.70353983  0.09997614     0.18300
H1127       H  0.21681713  0.64960297  0.16494607     0.18300
N1128       N  0.23963221  0.61330698  0.12135799    -0.88500
H1129       H  0.25068532  0.75413107  0.13822595     0.35600
H1130       H  0.28802722  0.74888835  0.12726579     0.40700
H1131       H  0.25174561  0.60332084  0.10257884     0.40400
H1132       H  0.21597495  0.61317222  0.11505770     0.35200
C1133       C  0.15591706  0.65995174  0.23334833    -0.26500
C1134       C  0.16265055  0.69123008  0.24129870    -0.14600
C1135       C  0.14407783  0.70639327  0.26425898     0.36100
C1136       C  0.12007517  0.68985745  0.27929788    -0.25900
C1137       C  0.11423339  0.65847812  0.27192251    -0.15200
C1138       C  0.13197622  0.64352632  0.24837563     0.37200
N1139       N  0.12582649  0.61189629  0.23893837    -0.89400
H1140       H  0.16962623  0.64787202  0.21567726     0.18300
H1141       H  0.10618920  0.70146234  0.29717349     0.18300
N1142       N  0.14918113  0.73858110  0.27227014    -0.88500
H1143       H  0.10241582  0.61032391  0.23195521     0.35600
H1144       H  0.12916792  0.59716248  0.25813308     0.40700
H1145       H  0.15396159  0.73989858  0.29626187     0.40400
H1146       H  0.12846259  0.75088924  0.26804424     0.35200
C1147       C  0.83134768  0.67764273  0.68404448    -0.26500
C1148       C  0.82598771  0.67242493  0.65196358    -0.14600
C1149       C  0.79758485  0.68265509  0.63849535     0.36100
C1150       C  0.77501644  0.69719146  0.65752348    -0.25900
C1151       C  0.78011931  0.70180894  0.68968836    -0.15200
C1152       C  0.80877397  0.69207929  0.70299397     0.37200
N1153       N  0.81597090  0.69724333  0.73537162    -0.89400
H1154       H  0.85307239  0.66994539  0.69461341     0.18300
H1155       H  0.75308648  0.70466475  0.64721360     0.18300
N1156       N  0.79184685  0.67851224  0.60554404    -0.88500
H1157       H  0.80011383  0.68467646  0.74912818     0.35600
H1158       H  0.81350443  0.72111771  0.74025111     0.40700
H1159       H  0.80825768  0.69203951  0.59339948     0.40400
H1160       H  0.76973925  0.68708013  0.59949036     0.35200
C1161       C  0.70826342  0.79733622  0.67415825    -0.26500
C1162       C  0.69388125  0.77705619  0.69575459    -0.14600
C1163       C  0.66138283  0.78007183  0.70162532     0.36100
C1164       C  0.64403930  0.80271224  0.68556269    -0.25900
C1165       C  0.65852119  0.82267754  0.66404434    -0.15200
C1166       C  0.69085606  0.82022674  0.65846764     0.37200
N1167       N  0.70591060  0.84062392  0.63650381    -0.89400
H1168       H  0.73313722  0.79547953  0.66940448     0.18300
H1169       H  0.61909212  0.80472792  0.68991002     0.18300
N1170       N  0.64562212  0.75977397  0.72319202    -0.88500
H1171       H  0.71642530  0.82680874  0.61917545     0.35600
H1172       H  0.72361631  0.85276172  0.64829893     0.40700
H1173       H  0.62788931  0.74798048  0.71109228     0.40400
H1174       H  0.63512323  0.77363105  0.74050138     0.35200
C1175       C  0.71530428  0.66768062  0.78433124    -0.26500
C1176       C  0.70703867  0.69909507  0.77906884    -0.14600
C1177       C  0.68412122  0.71321321  0.79854878     0.36100
C1178       C  0.66788287  0.69479551  0.82040136    -0.25900
C1179       C  0.67444041  0.66284665  0.82367698    -0.15200
C1180       C  0.69925768  0.64940024  0.80647197     0.37200
N1181       N  0.70844210  0.61747912  0.81188900    -0.89400
H1182       H  0.73339467  0.65681952  0.77018782     0.18300
H1183       H  0.64945491  0.70522074  0.83447206     0.18300
N1184       N  0.67709294  0.74602167  0.79587582    -0.88500
H1185       H  0.72854915  0.61200889  0.79896370     0.35600
H1186       H  0.69076354  0.60292149  0.80330274     0.40700
H1187       H  0.69718978  0.75843095  0.80236412     0.40400
H1188       H  0.65948344  0.75250734  0.81166707     0.35200
loop_ 
_geom_bond_atom_site_label_1 
_geom_bond_atom_site_label_2 
_geom_bond_distance 
_geom_bond_site_symmetry_2 
_ccdc_geom_bond_type 
C1            N2   1.357       .  A
C1            N6   1.359       .  A
C1         C1151   1.477       .  S
N2            C3   1.356       .  A
C3            N4   1.355       .  A
C3         C1162   1.481       .  S
N4            C5   1.356       .  A
C5            N6   1.360       .  A
C5         C1176   1.486       .  S
C7            N8   1.360       .  A
C7           N12   1.357       .  A
C7         C1123   1.487       .  S
N8            C9   1.359       .  A
C9           N10   1.356       .  A
C9         C1106   1.485       .  S
N10          C11   1.353       .  A
C11          N12   1.355       .  A
C11        C1134   1.482       .  S
C13          N14   1.360       .  A
C13          N18   1.359       .  A
C13        C1078   1.485       .  S
N14          C15   1.361       .  A
C15          N16   1.356       .  A
C15        C1092   1.488       .  S
N16          C17   1.354       .  A
C17          N18   1.356       .  A
C17        C1064   1.480       .  S
C19          N20   1.356       .  A
C19          N24   1.357       .  A
C19        C1036   1.485       .  S
N20          C21   1.357       .  A
C21          N22   1.361       .  A
C21        C1053   1.485       .  S
N22          C23   1.360       .  A
C23          N24   1.358       .  A
C23        C1022   1.485       .  S
C25          N26   1.361       .  A
C25          N30   1.358       .  A
C25         C980   1.493       .  S
N26          C27   1.359       .  A
C27          N28   1.358       .  A
C27         C994   1.496       .  S
N28          C29   1.356       .  A
C29          N30   1.358       .  A
C29        C1008   1.490       .  S
C31          N32   1.357       .  A
C31          N36   1.358       .  A
C31         C952   1.480       .  S
N32          C33   1.357       .  A
C33          N34   1.355       .  A
C33         C969   1.482       .  S
N34          C35   1.356       .  A
C35          N36   1.356       .  A
C35         C941   1.473       .  S
O37         Cu45   2.015       .  S
O37          C47   1.278       .  A
O38         Cu45   2.010       .  S
O38          C48   1.278       .  A
O39         Cu45   2.038       .  S
O39          C49   1.281       .  A
O40         Cu45   2.032       .  S
O40          C50   1.280       .  A
O41         Cu46   1.990       .  S
O41          C50   1.275       .  A
O42         Cu46   1.994       .  S
O42          C49   1.276       .  A
O43         Cu46   1.998       .  S
O43          C48   1.277       .  A
O44         Cu46   1.998       .  S
O44          C47   1.277       .  A
Cu45        Cu46   2.374       .  S
C47         C913   1.472       .  S
C48         C896   1.473       .  S
C49         C924   1.482       .  S
C50         C882   1.475       .  S
C51         C854   1.473       .  S
C51          C52   1.403       .  A
C51          C56   1.406       .  A
C52          C53   1.401       .  A
C52          H57   1.084       .  S
C53         C868   1.485   1_554  S
C53          C54   1.404       .  A
C54          C55   1.402       .  A
C54          H58   1.084       .  S
C55         C885   1.486       .  S
C55          C56   1.402       .  A
C56          H59   1.084       .  S
C60        C1120   1.470       .  S
C60          C61   1.402       .  A
C60          C65   1.403       .  A
C61          C62   1.402       .  A
C61          H66   1.084       .  S
C62         C840   1.478   1_554  S
C62          C63   1.402       .  A
C63          C64   1.401       .  A
C63          H67   1.084       .  S
C64         C910   1.479       .  S
C64          C65   1.400       .  A
C65          H68   1.084       .  S
C69         C955   1.471       .  S
C69          C70   1.403       .  A
C69          C74   1.403       .  A
C70          C71   1.398       .  A
C70          H75   1.084       .  S
C71         C826   1.469       .  S
C71          C72   1.399       .  A
C72          C73   1.400       .  A
C72          H76   1.084       .  S
C73         C899   1.478       .  S
C73          C74   1.401       .  A
C74          H77   1.084       .  S
C78         C798   1.477       .  S
C78          C79   1.404       .  A
C78          C83   1.405       .  A
C79          C80   1.404       .  A
C79          H84   1.084       .  S
C80         C815   1.483   1_554  S
C80          C81   1.405       .  A
C81          C82   1.402       .  A
C81          H85   1.084       .  S
C82         C927   1.490       .  S
C82          C83   1.401       .  A
C83          H86   1.084       .  S
O87         Cu95   2.000       .  S
O87          C97   1.277       .  A
O88         Cu95   1.984       .  S
O88          C98   1.275       .  A
O89         Cu95   2.001       .  S
O89          C99   1.276       .  A
O90         Cu95   2.008       .  S
O90         C100   1.278       .  A
O91         Cu96   2.020       .  S
O91         C100   1.278       .  A
O92         Cu96   2.021       .  S
O92          C99   1.279       .  A
O93         Cu96   2.029       .  S
O93          C98   1.280       .  A
O94         Cu96   2.028       .  S
O94          C97   1.280       .  A
Cu95        Cu96   2.374       .  S
C97         C770   1.485       .  S
C98         C756   1.473       .  S
C99         C784   1.473       .  S
C100        C742   1.481       .  S
C101       C1025   1.479       .  S
C101        C102   1.408       .  A
C101        C106   1.407       .  A
C102        C103   1.405       .  A
C102        H107   1.083       .  S
C103        C745   1.490       .  S
C103        C104   1.400       .  A
C104        C105   1.402       .  A
C104        H108   1.084       .  S
C105        C871   1.484       .  S
C105        C106   1.404       .  A
C106        H109   1.083       .  S
C110        C983   1.479       .  S
C110        C111   1.405       .  A
C110        C115   1.408       .  A
C111        C112   1.401       .  A
C111        H116   1.084       .  S
C112        C843   1.480       .  S
C112        C113   1.402       .  A
C113        C114   1.403       .  A
C113        H117   1.084       .  S
C114        C773   1.490       .  S
C114        C115   1.406       .  A
C115        H118   1.084       .  S
C119       C1067   1.472       .  S
C119        C120   1.403       .  A
C119        C124   1.404       .  A
C120        C121   1.402       .  A
C120        H125   1.083       .  S
C121        C829   1.474       .  S
C121        C122   1.401       .  A
C122        C123   1.401       .  A
C122        H126   1.084       .  S
C123        C759   1.479       .  S
C123        C124   1.398       .  A
C124        H127   1.084       .  S
C128       C1179   1.477       .  S
C128        C129   1.404       .  A
C128        C133   1.407       .  A
C129        C130   1.402       .  A
C129        H134   1.084       .  S
C130        C812   1.482       .  S
C130        C131   1.402       .  A
C131        C132   1.399       .  A
C131        H135   1.084       .  S
C132        C787   1.476       .  S
C132        C133   1.400       .  A
C133        H136   1.084       .  S
O137       Cu145   1.983       .  S
O137        C147   1.275       .  A
O138       Cu145   1.995       .  S
O138        C148   1.276       .  A
O139       Cu145   1.991       .  S
O139        C149   1.276       .  A
O140       Cu145   2.002       .  S
O140        C150   1.278       .  A
O141       Cu146   2.009       .  S
O141        C150   1.277       .  A
O142       Cu146   2.014       .  S
O142        C149   1.277       .  A
O143       Cu146   2.015       .  S
O143        C148   1.278       .  A
O144       Cu146   2.023       .  S
O144        C147   1.280       .  A
Cu145      Cu146   2.377       .  S
C147        C717   1.476       .  S
C148        C703   1.470       .  S
C149        C686   1.466       .  S
C150        C731   1.474       .  S
C151        C658   1.477       .  S
C151        C152   1.408       .  A
C151        C156   1.406       .  A
C152        C153   1.402       .  A
C152        H157   1.084       .  S
C153        C672   1.473       .  S
C153        C154   1.397       .  A
C154        C155   1.397       .  A
C154        H158   1.085       .  S
C155        C689   1.474       .  S
C155        C156   1.399       .  A
C156        H159   1.084       .  S
C160        C966   1.480       .  S
C160        C161   1.408       .  A
C160        C165   1.407       .  A
C161        C162   1.400       .  A
C161        H166   1.083       .  S
C162        C714   1.480       .  S
C162        C163   1.397       .  A
C163        C164   1.398       .  A
C163        H167   1.084       .  S
C164        C644   1.473   1_545  S
C164        C165   1.401       .  A
C165        H168   1.084       .  S
C169       C1050   1.477       .  S
C169        C170   1.407       .  A
C169        C174   1.406       .  A
C170        C171   1.401       .  A
C170        H175   1.084       .  S
C171        C630   1.478       .  S
C171        C172   1.401       .  A
C172        C173   1.399       .  A
C172        H176   1.084       .  S
C173        C700   1.480       .  S
C173        C174   1.401       .  A
C174        H177   1.084       .  S
C178       C1095   1.477       .  S
C178        C179   1.407       .  A
C178        C183   1.406       .  A
C179        C180   1.404       .  A
C179        H184   1.083       .  S
C180        C728   1.484       .  S
C180        C181   1.400       .  A
C181        C182   1.398       .  A
C181        H185   1.084       .  S
C182        C616   1.474   1_545  S
C182        C183   1.398       .  A
C183        H186   1.084       .  S
O187       Cu195   1.990       .  S
O187        C197   1.275       .  A
O188       Cu195   1.990       .  S
O188        C198   1.275       .  A
O189       Cu195   1.996       .  S
O189        C199   1.277       .  A
O190       Cu195   1.987       .  S
O190        C200   1.276       .  A
O191       Cu196   2.026       .  S
O191        C200   1.279       .  A
O192       Cu196   2.012       .  S
O192        C199   1.278       .  A
O193       Cu196   2.029       .  S
O193        C198   1.280       .  A
O194       Cu196   2.028       .  S
O194        C197   1.280       .  A
Cu195      Cu196   2.373       .  S
C197        C602   1.471       .  S
C198        C560   1.479       .  S
C199        C574   1.474       .  S
C200        C588   1.475       .  S
C201       C1109   1.473       .  S
C201        C202   1.405       .  A
C201        C206   1.402       .  A
C202        C203   1.404       .  A
C202        H207   1.082       .  S
C203        C563   1.487       .  S
C203        C204   1.405       .  A
C204        C205   1.400       .  A
C204        H208   1.084       .  S
C205        C675   1.474       .  S
C205        C206   1.398       .  A
C206        H209   1.084       .  S
C210        C546   1.470       .  S
C210        C211   1.400       .  A
C210        C215   1.404       .  A
C211        C212   1.396       .  A
C211        H216   1.084       .  S
C212        C647   1.473       .  S
C212        C213   1.401       .  A
C213        C214   1.404       .  A
C213        H217   1.084       .  S
C214        C591   1.483       .  S
C214        C215   1.402       .  A
C215        H218   1.084       .  S
C219        C997   1.471       .  S
C219        C220   1.404       .  A
C219        C224   1.404       .  A
C220        C221   1.401       .  A
C220        H225   1.084       .  S
C221        C633   1.476       .  S
C221        C222   1.402       .  A
C222        C223   1.400       .  A
C222        H226   1.085       .  S
C223        C577   1.481       .  S
C223        C224   1.400       .  A
C224        H227   1.084       .  S
C228       C1165   1.468       .  S
C228        C229   1.402       .  A
C228        C233   1.405       .  A
C229        C230   1.399       .  A
C229        H234   1.084       .  S
C230        C619   1.476       .  S
C230        C231   1.402       .  A
C231        C232   1.400       .  A
C231        H235   1.085       .  S
C232        C605   1.477       .  S
C232        C233   1.400       .  A
C233        H236   1.084       .  S
C237        N238   1.358       .  A
C237        N242   1.359       .  A
C237        C532   1.484       .  S
N238        C239   1.355       .  A
C239        N240   1.353       .  A
C239        C549   1.475       .  S
N240        C241   1.354       .  A
C241        N242   1.359       .  A
C241        C801   1.477       .  S
O243       Cu251   2.008       .  S
O243        C253   1.277       .  A
O244       Cu251   2.014       .  S
O244        C254   1.277       .  A
O245       Cu251   2.028       .  S
O245        C255   1.280       .  A
O246       Cu251   2.024       .  S
O246        C256   1.280       .  A
O247       Cu252   1.980       .  S
O247        C256   1.274       .  A
O248       Cu252   1.984       .  S
O248        C255   1.275       .  A
O249       Cu252   1.987       .  S
O249        C254   1.276       .  A
O250       Cu252   2.001       .  S
O250        C253   1.278       .  A
Cu251      Cu252   2.375       .  S
C253        C518   1.476       .  S
C254        C479   1.471       .  S
C255        C504   1.473       .  S
C256        C493   1.473       .  S
C257        C448   1.468       .  S
C257        C258   1.401       .  A
C257        C262   1.404       .  A
C258        C259   1.397       .  A
C258        H263   1.084       .  S
C259        C462   1.472   1_455  S
C259        C260   1.398       .  A
C260        C261   1.403       .  A
C260        H264   1.085       .  S
C261        C476   1.478       .  S
C261        C262   1.400       .  A
C262        H265   1.084       .  S
C266       C1137   1.468       .  S
C266        C267   1.403       .  A
C266        C271   1.403       .  A
C267        C268   1.399       .  A
C267        H272   1.084       .  S
C268        C507   1.479       .  S
C268        C269   1.402       .  A
C269        C270   1.400       .  A
C269        H273   1.084       .  S
C270        C437   1.474       .  S
C270        C271   1.399       .  A
C271        H274   1.084       .  S
C275       C1039   1.474       .  S
C275        C276   1.404       .  A
C275        C280   1.403       .  A
C276        C277   1.400       .  A
C276        H281   1.083       .  S
C277        C490   1.483       .  S
C277        C278   1.403       .  A
C278        C279   1.401       .  A
C278        H282   1.084       .  S
C279        C420   1.474   1_455  S
C279        C280   1.400       .  A
C280        H283   1.084       .  S
C284       C1011   1.479       .  S
C284        C285   1.408       .  A
C284        C289   1.405       .  A
C285        C286   1.403       .  A
C285        H290   1.084       .  S
C286        C406   1.482       .  S
C286        C287   1.401       .  A
C287        C288   1.399       .  A
C287        H291   1.083       .  S
C288        C521   1.479       .  S
C288        C289   1.400       .  A
C289        H292   1.084       .  S
O293       Cu301   1.985       .  S
O293        C303   1.276       .  A
O294       Cu301   1.987       .  S
O294        C304   1.276       .  A
O295       Cu301   1.998       .  S
O295        C305   1.276       .  A
O296       Cu301   1.994       .  S
O296        C306   1.275       .  A
O297       Cu302   2.023       .  S
O297        C306   1.279       .  A
O298       Cu302   2.015       .  S
O298        C305   1.277       .  A
O299       Cu302   2.016       .  S
O299        C304   1.278       .  A
O300       Cu302   2.024       .  S
O300        C303   1.279       .  A
Cu301      Cu302   2.377       .  S
C303        C392   1.475       .  S
C304        C353   1.469       .  S
C305        C381   1.469       .  S
C306        C367   1.470       .  S
C307        C938   1.475       .  S
C307        C308   1.404       .  A
C307        C312   1.405       .  A
C308        C309   1.398       .  A
C308        H313   1.084       .  S
C309        C350   1.479       .  S
C309        C310   1.401       .  A
C310        C311   1.399       .  A
C310        H314   1.085       .  S
C311        C465   1.474       .  S
C311        C312   1.402       .  A
C312        H315   1.084       .  S
C316        C535   1.473       .  S
C316        C317   1.404       .  A
C316        C321   1.404       .  A
C317        C318   1.399       .  A
C317        H322   1.083       .  S
C318        C378   1.478       .  S
C318        C319   1.400       .  A
C319        C320   1.400       .  A
C319        H323   1.085       .  S
C320        C434   1.476       .  S
C320        C321   1.401       .  A
C321        H324   1.084       .  S
C325       C1081   1.483       .  S
C325        C326   1.407       .  A
C325        C330   1.405       .  A
C326        C327   1.402       .  A
C326        H331   1.084       .  S
C327        C364   1.481       .  S
C327        C328   1.401       .  A
C328        C329   1.402       .  A
C328        H332   1.084       .  S
C329        C423   1.476       .  S
C329        C330   1.401       .  A
C330        H333   1.084       .  S
C334       C1148   1.485       .  S
C334        C335   1.408       .  A
C334        C339   1.409       .  A
C335        C336   1.401       .  A
C335        H340   1.083       .  S
C336        C395   1.482       .  S
C336        C337   1.399       .  A
C337        C338   1.401       .  A
C337        H341   1.084       .  S
C338        C409   1.483       .  S
C338        C339   1.403       .  A
C339        H342   1.083       .  S
C343        N344   1.360       .  A
C343        N348   1.357       .  A
C343        C661   1.487       .  S
N344        C345   1.361       .  A
C345        N346   1.357       .  A
C345        C857   1.486       .  S
N346        C347   1.355       .  A
C347        N348   1.354       .  A
C347        C451   1.482       .  S
C349        C350   1.401       .  A
C349        C354   1.396       .  A
C349        H356   1.084       .  S
C350        C351   1.412       .  A
C351        C352   1.406       .  A
C351        N358   1.438       .  S
C352        C353   1.403       .  A
C352        H357   1.084       .  S
C353        C354   1.416       .  A
C354        N355   1.440       .  S
N355        H359   1.046       .  S
N355        H360   1.043       .  S
N358        H361   1.046       .  S
N358        H362   1.046       .  S
C363        C364   1.404       .  A
C363        C368   1.403       .  A
C363        H370   1.084       .  S
C364        C365   1.410       .  A
C365        C366   1.405       .  A
C365        N372   1.438       .  S
C366        C367   1.403       .  A
C366        H371   1.084       .  S
C367        C368   1.416       .  A
C368        N369   1.439       .  S
N369        H373   1.045       .  S
N369        H374   1.043       .  S
N372        H375   1.046       .  S
N372        H376   1.046       .  S
C377        C378   1.402       .  A
C377        C382   1.393       .  A
C377        H384   1.084       .  S
C378        C379   1.415       .  A
C379        C380   1.403       .  A
C379        N386   1.433       .  S
C380        C381   1.403       .  A
C380        H385   1.084       .  S
C381        C382   1.410       .  A
C382        N383   1.433       .  S
N383        H387   1.044       .  S
N383        H388   1.044       .  S
N386        H389   1.045       .  S
N386        H390   1.044       .  S
C391        C392   1.402       .  A
C391        C396   1.400       .  A
C391        H398   1.084       .  S
C392        C393   1.411       .  A
C393        C394   1.409       .  A
C393        N400   1.437       .  S
C394        C395   1.405       .  A
C394        H399   1.084       .  S
C395        C396   1.411       .  A
C396        N397   1.438       .  S
N397        H401   1.046       .  S
N397        H402   1.046       .  S
N400        H403   1.044       .  S
N400        H404   1.046       .  S
C405        C406   1.404   1_655  A
C405        C410   1.408       .  A
C405        H412   1.084       .  S
C406        C407   1.410   1_455  A
C407        C408   1.402       .  A
C407        N414   1.438   1_655  S
C408        C409   1.403       .  A
C408        H413   1.084       .  S
C409        C410   1.413       .  A
C410        N411   1.438       .  S
N411        H415   1.046       .  S
N411        H416   1.045       .  S
N414        H417   1.045       .  S
N414        H418   1.046   1_455  S
C419        C420   1.402       .  A
C419        C424   1.400       .  A
C419        H426   1.084       .  S
C420        C421   1.416       .  A
C421        C422   1.400       .  A
C421        N428   1.439       .  S
C422        C423   1.402       .  A
C422        H427   1.084       .  S
C423        C424   1.415       .  A
C424        N425   1.439       .  S
N425        H429   1.046       .  S
N425        H430   1.044       .  S
N428        H431   1.042   1_655  S
N428        H432   1.046       .  S
C433        C434   1.403       .  A
C433        C438   1.398       .  A
C433        H440   1.085       .  S
C434        C435   1.416       .  A
C435        C436   1.402       .  A
C435        N442   1.438       .  S
C436        C437   1.403   1_655  A
C436        H441   1.084   1_655  S
C437        C438   1.414   1_455  A
C438        N439   1.439       .  S
N439        H443   1.046       .  S
N439        H444   1.044   1_655  S
N442        H445   1.042       .  S
N442        H446   1.046       .  S
C447        C448   1.399       .  A
C447        C452   1.398       .  A
C447        H454   1.084       .  S
C448        C449   1.414       .  A
C449        C450   1.399       .  A
C449        N456   1.439       .  S
C450        C451   1.407       .  A
C450        H455   1.084       .  S
C451        C452   1.413       .  A
C452        N453   1.432       .  S
N453        H457   1.046       .  S
N453        H458   1.046       .  S
N456        H459   1.043       .  S
N456        H460   1.046       .  S
C461        C462   1.402       .  A
C461        C466   1.400       .  A
C461        H468   1.084       .  S
C462        C463   1.413       .  A
C463        C464   1.399       .  A
C463        N470   1.439       .  S
C464        C465   1.403       .  A
C464        H469   1.084       .  S
C465        C466   1.415       .  A
C466        N467   1.439       .  S
N467        H471   1.046       .  S
N467        H472   1.043       .  S
N470        H473   1.044   1_655  S
N470        H474   1.046       .  S
C475        C476   1.401       .  A
C475        C480   1.397       .  A
C475        H482   1.084       .  S
C476        C477   1.412       .  A
C477        C478   1.409       .  A
C477        N484   1.437       .  S
C478        C479   1.404       .  A
C478        H483   1.084       .  S
C479        C480   1.408       .  A
C480        N481   1.438       .  S
N481        H485   1.046       .  S
N481        H486   1.045       .  S
N484        H487   1.045       .  S
N484        H488   1.046       .  S
C489        C490   1.403       .  A
C489        C494   1.400       .  A
C489        H496   1.084       .  S
C490        C491   1.414       .  A
C491        C492   1.407       .  A
C491        N498   1.438       .  S
C492        C493   1.402       .  A
C492        H497   1.084       .  S
C493        C494   1.411       .  A
C494        N495   1.439       .  S
N495        H499   1.046       .  S
N495        H500   1.046       .  S
N498        H501   1.045       .  S
N498        H502   1.046       .  S
C503        C504   1.402       .  A
C503        C508   1.399       .  A
C503        H510   1.083       .  S
C504        C505   1.409       .  A
C505        C506   1.408       .  A
C505        N512   1.435       .  S
C506        C507   1.405       .  A
C506        H511   1.084       .  S
C507        C508   1.410       .  A
C508        N509   1.439       .  S
N509        H513   1.046       .  S
N509        H514   1.046       .  S
N512        H515   1.044       .  S
N512        H516   1.046       .  S
C517        C518   1.402       .  A
C517        C522   1.396       .  A
C517        H524   1.084       .  S
C518        C519   1.415       .  A
C519        C520   1.399       .  A
C519        N526   1.431       .  S
C520        C521   1.403       .  A
C520        H525   1.084       .  S
C521        C522   1.415       .  A
C522        N523   1.434       .  S
N523        H527   1.042       .  S
N523        H528   1.046       .  S
N526        H529   1.043       .  S
N526        H530   1.045       .  S
C531        C532   1.407       .  A
C531        C536   1.400       .  A
C531        H538   1.083       .  S
C532        C533   1.419       .  A
C533        C534   1.400       .  A
C533        N540   1.432       .  S
C534        C535   1.400       .  A
C534        H539   1.084       .  S
C535        C536   1.407       .  A
C536        N537   1.439       .  S
N537        H541   1.046       .  S
N537        H542   1.046       .  S
N540        H543   1.045       .  S
N540        H544   1.045       .  S
C545        C546   1.400       .  A
C545        C550   1.395       .  A
C545        H552   1.084       .  S
C546        C547   1.407       .  A
C547        C548   1.402       .  A
C547        N554   1.438       .  S
C548        C549   1.406       .  A
C548        H553   1.084       .  S
C549        C550   1.416       .  A
C550        N551   1.433       .  S
N551        H555   1.044       .  S
N551        H556   1.045       .  S
N554        H557   1.046       .  S
N554        H558   1.046       .  S
C559        C560   1.404       .  A
C559        C564   1.405       .  A
C559        H566   1.084       .  S
C560        C561   1.409       .  A
C561        C562   1.397       .  A
C561        N568   1.433       .  S
C562        C563   1.403       .  A
C562        H567   1.084       .  S
C563        C564   1.419       .  A
C564        N565   1.433       .  S
N565        H569   1.043       .  S
N565        H570   1.046       .  S
N568        H571   1.046       .  S
N568        H572   1.045       .  S
C573        C574   1.404       .  A
C573        C578   1.408       .  A
C573        H580   1.084       .  S
C574        C575   1.410       .  A
C575        C576   1.401       .  A
C575        N582   1.438       .  S
C576        C577   1.403       .  A
C576        H581   1.084       .  S
C577        C578   1.413       .  A
C578        N579   1.438       .  S
N579        H583   1.046       .  S
N579        H584   1.045       .  S
N582        H585   1.046       .  S
N582        H586   1.046       .  S
C587        C588   1.403       .  A
C587        C592   1.409       .  A
C587        H594   1.084       .  S
C588        C589   1.409       .  A
C589        C590   1.400       .  A
C589        N596   1.438       .  S
C590        C591   1.403       .  A
C590        H595   1.084       .  S
C591        C592   1.414       .  A
C592        N593   1.438       .  S
N593        H597   1.046       .  S
N593        H598   1.046       .  S
N596        H599   1.045       .  S
N596        H600   1.046       .  S
C601        C602   1.401       .  A
C601        C606   1.396       .  A
C601        H608   1.084       .  S
C602        C603   1.408       .  A
C603        C604   1.407       .  A
C603        N610   1.432       .  S
C604        C605   1.404       .  A
C604        H609   1.084       .  S
C605        C606   1.413       .  A
C606        N607   1.433       .  S
N607        H611   1.046       .  S
N607        H612   1.044       .  S
N610        H613   1.046       .  S
N610        H614   1.045       .  S
C615        C616   1.402       .  A
C615        C620   1.407       .  A
C615        H622   1.084       .  S
C616        C617   1.408       .  A
C617        C618   1.400       .  A
C617        N624   1.438       .  S
C618        C619   1.401       .  A
C618        H623   1.084       .  S
C619        C620   1.412       .  A
C620        N621   1.438       .  S
N621        H625   1.046       .  S
N621        H626   1.046       .  S
N624        H627   1.046   1_565  S
N624        H628   1.046       .  S
C629        C630   1.402   1_565  A
C629        C634   1.400       .  A
C629        H636   1.084       .  S
C630        C631   1.411   1_545  A
C631        C632   1.409       .  A
C631        N638   1.438   1_565  S
C632        C633   1.404       .  A
C632        H637   1.084       .  S
C633        C634   1.408       .  A
C634        N635   1.438       .  S
N635        H639   1.046       .  S
N635        H640   1.045       .  S
N638        H641   1.046       .  S
N638        H642   1.046   1_545  S
C643        C644   1.403       .  A
C643        C648   1.401       .  A
C643        H650   1.084       .  S
C644        C645   1.410       .  A
C645        C646   1.404       .  A
C645        N652   1.438       .  S
C646        C647   1.402       .  A
C646        H651   1.084       .  S
C647        C648   1.407       .  A
C648        N649   1.437       .  S
N649        H653   1.046       .  S
N649        H654   1.046       .  S
N652        H655   1.046       .  S
N652        H656   1.046       .  S
C657        C658   1.402       .  A
C657        C662   1.399       .  A
C657        H664   1.084       .  S
C658        C659   1.405       .  A
C659        C660   1.400       .  A
C659        N666   1.433       .  S
C660        C661   1.409       .  A
C660        H665   1.084       .  S
C661        C662   1.420       .  A
C662        N663   1.432       .  S
N663        H667   1.045       .  S
N663        H668   1.044       .  S
N666        H669   1.045       .  S
N666        H670   1.046       .  S
C671        C672   1.402   1_565  A
C671        C676   1.402       .  A
C671        H678   1.084       .  S
C672        C673   1.411   1_545  A
C673        C674   1.404       .  A
C673        N680   1.438   1_565  S
C674        C675   1.401       .  A
C674        H679   1.084       .  S
C675        C676   1.407       .  A
C676        N677   1.432       .  S
N677        H681   1.046       .  S
N677        H682   1.045       .  S
N680        H683   1.045       .  S
N680        H684   1.046   1_545  S
C685        C686   1.401       .  A
C685        C690   1.402       .  A
C685        H692   1.084       .  S
C686        C687   1.407       .  A
C687        C688   1.400       .  A
C687        N694   1.438       .  S
C688        C689   1.403       .  A
C688        H693   1.084       .  S
C689        C690   1.418       .  A
C690        N691   1.439       .  S
N691        H695   1.046       .  S
N691        H696   1.042       .  S
N694        H697   1.046       .  S
N694        H698   1.046       .  S
C699        C700   1.404       .  A
C699        C704   1.407       .  A
C699        H706   1.084       .  S
C700        C701   1.415       .  A
C701        C702   1.396       .  A
C701        N708   1.434       .  S
C702        C703   1.401       .  A
C702        H707   1.084       .  S
C703        C704   1.409       .  A
C704        N705   1.436       .  S
N705        H709   1.046       .  S
N705        H710   1.045       .  S
N708        H711   1.045       .  S
N708        H712   1.043       .  S
C713        C714   1.404       .  A
C713        C718   1.407       .  A
C713        H720   1.084       .  S
C714        C715   1.412       .  A
C715        C716   1.400       .  A
C715        N722   1.439       .  S
C716        C717   1.403       .  A
C716        H721   1.084       .  S
C717        C718   1.412       .  A
C718        N719   1.437       .  S
N719        H723   1.046       .  S
N719        H724   1.046       .  S
N722        H725   1.045       .  S
N722        H726   1.046       .  S
C727        C728   1.405       .  A
C727        C732   1.408       .  A
C727        H734   1.083       .  S
C728        C729   1.414       .  A
C729        C730   1.401       .  A
C729        N736   1.438       .  S
C730        C731   1.400       .  A
C730        H735   1.084       .  S
C731        C732   1.411       .  A
C732        N733   1.437       .  S
N733        H737   1.046       .  S
N733        H738   1.045       .  S
N736        H739   1.045       .  S
N736        H740   1.046       .  S
C741        C742   1.405       .  A
C741        C746   1.410       .  A
C741        H748   1.084       .  S
C742        C743   1.410       .  A
C743        C744   1.404       .  A
C743        N750   1.438       .  S
C744        C745   1.406       .  A
C744        H749   1.084       .  S
C745        C746   1.414       .  A
C746        N747   1.438       .  S
N747        H751   1.046       .  S
N747        H752   1.046       .  S
N750        H753   1.046       .  S
N750        H754   1.046       .  S
C755        C756   1.404       .  A
C755        C760   1.401       .  A
C755        H762   1.084       .  S
C756        C757   1.417       .  A
C757        C758   1.404       .  A
C757        N764   1.439       .  S
C758        C759   1.404       .  A
C758        H763   1.084       .  S
C759        C760   1.408       .  A
C760        N761   1.438       .  S
N761        H765   1.046       .  S
N761        H766   1.046       .  S
N764        H767   1.041       .  S
N764        H768   1.046       .  S
C769        C770   1.404       .  A
C769        C774   1.403       .  A
C769        H776   1.084       .  S
C770        C771   1.414       .  A
C771        C772   1.411       .  A
C771        N778   1.437       .  S
C772        C773   1.406       .  A
C772        H777   1.083       .  S
C773        C774   1.413       .  A
C774        N775   1.438       .  S
N775        H779   1.046       .  S
N775        H780   1.045       .  S
N778        H781   1.045       .  S
N778        H782   1.046       .  S
C783        C784   1.404       .  A
C783        C788   1.398       .  A
C783        H790   1.084       .  S
C784        C785   1.417       .  A
C785        C786   1.403       .  A
C785        N792   1.438       .  S
C786        C787   1.402       .  A
C786        H791   1.084       .  S
C787        C788   1.411       .  A
C788        N789   1.433       .  S
N789        H793   1.045       .  S
N789        H794   1.046       .  S
N792        H795   1.042       .  S
N792        H796   1.045       .  S
C797        C798   1.401       .  A
C797        C802   1.402       .  A
C797        H804   1.084       .  S
C798        C799   1.410       .  A
C799        C800   1.405       .  A
C799        N806   1.438       .  S
C800        C801   1.404       .  A
C800        H805   1.084       .  S
C801        C802   1.415       .  A
C802        N803   1.439       .  S
N803        H807   1.046       .  S
N803        H808   1.045       .  S
N806        H809   1.046       .  S
N806        H810   1.046       .  S
C811        C812   1.404       .  A
C811        C816   1.406       .  A
C811        H818   1.084       .  S
C812        C813   1.411       .  A
C813        C814   1.402       .  A
C813        N820   1.438       .  S
C814        C815   1.404       .  A
C814        H819   1.084       .  S
C815        C816   1.413       .  A
C816        N817   1.438       .  S
N817        H821   1.046       .  S
N817        H822   1.045   1_556  S
N820        H823   1.045       .  S
N820        H824   1.046       .  S
C825        C826   1.400   1_556  A
C825        C830   1.400       .  A
C825        H832   1.084   1_556  S
C826        C827   1.413   1_554  A
C827        C828   1.398       .  A
C827        N834   1.439   1_556  S
C828        C829   1.402       .  A
C828        H833   1.084       .  S
C829        C830   1.417       .  A
C830        N831   1.438       .  S
N831        H835   1.045       .  S
N831        H836   1.042       .  S
N834        H837   1.044       .  S
N834        H838   1.046       .  S
C839        C840   1.402       .  A
C839        C844   1.397       .  A
C839        H846   1.084       .  S
C840        C841   1.418       .  A
C841        C842   1.403       .  A
C841        N848   1.438       .  S
C842        C843   1.404       .  A
C842        H847   1.084       .  S
C843        C844   1.415       .  A
C844        N845   1.438       .  S
N845        H849   1.046       .  S
N845        H850   1.044       .  S
N848        H851   1.042   1_556  S
N848        H852   1.045       .  S
C853        C854   1.401       .  A
C853        C858   1.407       .  A
C853        H860   1.084       .  S
C854        C855   1.408       .  A
C855        C856   1.395       .  A
C855        N862   1.433       .  S
C856        C857   1.409       .  A
C856        H861   1.083       .  S
C857        C858   1.416       .  A
C858        N859   1.437       .  S
N859        H863   1.046       .  S
N859        H864   1.046       .  S
N862        H865   1.046       .  S
N862        H866   1.045       .  S
C867        C868   1.405       .  A
C867        C872   1.410       .  A
C867        H874   1.083       .  S
C868        C869   1.411       .  A
C869        C870   1.400       .  A
C869        N876   1.438       .  S
C870        C871   1.403       .  A
C870        H875   1.084       .  S
C871        C872   1.412       .  A
C872        N873   1.437       .  S
N873        H877   1.046       .  S
N873        H878   1.045       .  S
N876        H879   1.045   1_556  S
N876        H880   1.046       .  S
C881        C882   1.404       .  A
C881        C886   1.411       .  A
C881        H888   1.084       .  S
C882        C883   1.409       .  A
C883        C884   1.401       .  A
C883        N890   1.438       .  S
C884        C885   1.403       .  A
C884        H889   1.084       .  S
C885        C886   1.414       .  A
C886        N887   1.437       .  S
N887        H891   1.046       .  S
N887        H892   1.046       .  S
N890        H893   1.045       .  S
N890        H894   1.046       .  S
C895        C896   1.405       .  A
C895        C900   1.403       .  A
C895        H902   1.084       .  S
C896        C897   1.419       .  A
C897        C898   1.400       .  A
C897        N904   1.440       .  S
C898        C899   1.401       .  A
C898        H903   1.084       .  S
C899        C900   1.409       .  A
C900        N901   1.438       .  S
N901        H905   1.046       .  S
N901        H906   1.046       .  S
N904        H907   1.041       .  S
N904        H908   1.046       .  S
C909        C910   1.403       .  A
C909        C914   1.403       .  A
C909        H916   1.084       .  S
C910        C911   1.412       .  A
C911        C912   1.396       .  A
C911        N918   1.433       .  S
C912        C913   1.402       .  A
C912        H917   1.084       .  S
C913        C914   1.420       .  A
C914        N915   1.439       .  S
N915        H919   1.046       .  S
N915        H920   1.041       .  S
N918        H921   1.046       .  S
N918        H922   1.043       .  S
C923        C924   1.403       .  A
C923        C928   1.410       .  A
C923        H930   1.084       .  S
C924        C925   1.412       .  A
C925        C926   1.404       .  A
C925        N932   1.438       .  S
C926        C927   1.405       .  A
C926        H931   1.084       .  S
C927        C928   1.415       .  A
C928        N929   1.438       .  S
N929        H933   1.045       .  S
N929        H934   1.046       .  S
N932        H935   1.046       .  S
N932        H936   1.046       .  S
C937        C938   1.401       .  A
C937        C942   1.396       .  A
C937        H944   1.084       .  S
C938        C939   1.410       .  A
C939        C940   1.406       .  A
C939        N946   1.438       .  S
C940        C941   1.405       .  A
C940        H945   1.084       .  S
C941        C942   1.409       .  A
C942        N943   1.433       .  S
N943        H947   1.046       .  S
N943        H948   1.046       .  S
N946        H949   1.046       .  S
N946        H950   1.046       .  S
C951        C952   1.406       .  A
C951        C956   1.397       .  A
C951        H958   1.084       .  S
C952        C953   1.413       .  A
C953        C954   1.400       .  A
C953        N960   1.432       .  S
C954        C955   1.399       .  A
C954        H959   1.084       .  S
C955        C956   1.411       .  A
C956        N957   1.433       .  S
N957        H961   1.044       .  S
N957        H962   1.045       .  S
N960        H963   1.046       .  S
N960        H964   1.046       .  S
C965        C966   1.402       .  A
C965        C970   1.397       .  A
C965        H972   1.084       .  S
C966        C967   1.410       .  A
C967        C968   1.402       .  A
C967        N974   1.438       .  S
C968        C969   1.406       .  A
C968        H973   1.083       .  S
C969        C970   1.418       .  A
C970        N971   1.433       .  S
N971        H975   1.044       .  S
N971        H976   1.046       .  S
N974        H977   1.045       .  S
N974        H978   1.046       .  S
C979        C980   1.409       .  A
C979        C984   1.399       .  A
C979        H986   1.082       .  S
C980        C981   1.420       .  A
C981        C982   1.407       .  A
C981        N988   1.438       .  S
C982        C983   1.400       .  A
C982        H987   1.084       .  S
C983        C984   1.410       .  A
C984        N985   1.433       .  S
N985        H989   1.044       .  S
N985        H990   1.046       .  S
N988        H991   1.046       .  S
N988        H992   1.046       .  S
C993        C994   1.412       .  A
C993        C998   1.404       .  A
C993       H1000   1.082       .  S
C994        C995   1.423       .  A
C995        C996   1.398       .  A
C995       N1002   1.431       .  S
C996        C997   1.398       .  A
C996       H1001   1.084       .  S
C997        C998   1.404       .  A
C998        N999   1.438       .  S
N999       H1003   1.046       .  S
N999       H1004   1.046       .  S
N1002      H1005   1.045       .  S
N1002      H1006   1.045       .  S
C1007      C1008   1.408       .  A
C1007      C1012   1.405       .  A
C1007      H1014   1.083       .  S
C1008      C1009   1.416       .  A
C1009      C1010   1.402       .  A
C1009      N1016   1.432       .  S
C1010      C1011   1.400       .  A
C1010      H1015   1.084       .  S
C1011      C1012   1.410       .  A
C1012      N1013   1.438       .  S
N1013      H1017   1.046       .  S
N1013      H1018   1.045       .  S
N1016      H1019   1.046       .  S
N1016      H1020   1.046       .  S
C1021      C1022   1.406       .  A
C1021      C1026   1.402       .  A
C1021      H1028   1.084       .  S
C1022      C1023   1.417       .  A
C1023      C1024   1.406       .  A
C1023      N1030   1.438       .  S
C1024      C1025   1.400       .  A
C1024      H1029   1.084       .  S
C1025      C1026   1.412       .  A
C1026      N1027   1.432       .  S
N1027      H1031   1.045       .  S
N1027      H1032   1.045       .  S
N1030      H1033   1.046       .  S
N1030      H1034   1.046       .  S
C1035      C1036   1.407       .  A
C1035      C1040   1.403       .  A
C1035      H1042   1.083       .  S
C1036      C1037   1.415       .  A
C1037      C1038   1.404       .  A
C1037      N1044   1.438       .  S
C1038      C1039   1.400       .  A
C1038      H1043   1.084       .  S
C1039      C1040   1.409       .  A
C1040      N1041   1.439       .  S
N1041      H1045   1.046       .  S
N1041      H1046   1.044       .  S
N1044      H1047   1.046       .  S
N1044      H1048   1.046       .  S
C1049      C1050   1.402       .  A
C1049      C1054   1.403       .  A
C1049      H1056   1.084       .  S
C1050      C1051   1.406       .  A
C1051      C1052   1.402       .  A
C1051      N1058   1.433       .  S
C1052      C1053   1.408       .  A
C1052      H1057   1.084       .  S
C1053      C1054   1.413       .  A
C1054      N1055   1.432       .  S
N1055      H1059   1.046       .  S
N1055      H1060   1.046       .  S
N1058      H1061   1.046       .  S
N1058      H1062   1.045       .  S
C1063      C1064   1.406       .  A
C1063      C1068   1.399       .  A
C1063      H1070   1.084       .  S
C1064      C1065   1.413       .  A
C1065      C1066   1.399       .  A
C1065      N1072   1.433       .  S
C1066      C1067   1.400       .  A
C1066      H1071   1.084       .  S
C1067      C1068   1.411       .  A
C1068      N1069   1.433       .  S
N1069      H1073   1.045       .  S
N1069      H1074   1.045       .  S
N1072      H1075   1.046       .  S
N1072      H1076   1.046       .  S
C1077      C1078   1.406       .  A
C1077      C1082   1.405       .  A
C1077      H1084   1.084       .  S
C1078      C1079   1.418       .  A
C1079      C1080   1.398       .  A
C1079      N1086   1.432       .  S
C1080      C1081   1.403       .  A
C1080      H1085   1.084       .  S
C1081      C1082   1.411       .  A
C1082      N1083   1.438       .  S
N1083      H1087   1.046       .  S
N1083      H1088   1.046       .  S
N1086      H1089   1.045       .  S
N1086      H1090   1.044       .  S
C1091      C1092   1.407       .  A
C1091      C1096   1.399       .  A
C1091      H1098   1.083       .  S
C1092      C1093   1.419       .  A
C1093      C1094   1.403       .  A
C1093      N1100   1.438       .  S
C1094      C1095   1.400       .  A
C1094      H1099   1.084       .  S
C1095      C1096   1.411       .  A
C1096      N1097   1.433       .  S
N1097      H1101   1.044       .  S
N1097      H1102   1.045       .  S
N1100      H1103   1.046       .  S
N1100      H1104   1.046       .  S
C1105      C1106   1.407       .  A
C1105      C1110   1.394       .  A
C1105      H1112   1.083       .  S
C1106      C1107   1.417       .  A
C1107      C1108   1.407       .  A
C1107      N1114   1.437       .  S
C1108      C1109   1.401       .  A
C1108      H1113   1.084       .  S
C1109      C1110   1.409       .  A
C1110      N1111   1.433       .  S
N1111      H1115   1.044       .  S
N1111      H1116   1.046       .  S
N1114      H1117   1.046       .  S
N1114      H1118   1.046       .  S
C1119      C1120   1.400       .  A
C1119      C1124   1.405       .  A
C1119      H1126   1.084       .  S
C1120      C1121   1.412       .  A
C1121      C1122   1.398       .  A
C1121      N1128   1.440       .  S
C1122      C1123   1.409       .  A
C1122      H1127   1.084       .  S
C1123      C1124   1.416       .  A
C1124      N1125   1.437       .  S
N1125      H1129   1.046       .  S
N1125      H1130   1.046       .  S
N1128      H1131   1.043       .  S
N1128      H1132   1.046       .  S
C1133      C1134   1.407       .  A
C1133      C1138   1.395       .  A
C1133      H1140   1.083       .  S
C1134      C1135   1.415       .  A
C1135      C1136   1.400       .  A
C1135      N1142   1.432       .  S
C1136      C1137   1.398       .  A
C1136      H1141   1.084       .  S
C1137      C1138   1.409       .  A
C1138      N1139   1.433       .  S
N1139      H1143   1.046       .  S
N1139      H1144   1.044       .  S
N1142      H1145   1.046       .  S
N1142      H1146   1.046       .  S
C1147      C1148   1.406       .  A
C1147      C1152   1.399       .  A
C1147      H1154   1.084       .  S
C1148      C1149   1.413       .  A
C1149      C1150   1.403       .  A
C1149      N1156   1.438       .  S
C1150      C1151   1.404       .  A
C1150      H1155   1.084       .  S
C1151      C1152   1.413       .  A
C1152      N1153   1.432       .  S
N1153      H1157   1.044       .  S
N1153      H1158   1.046       .  S
N1156      H1159   1.045       .  S
N1156      H1160   1.046       .  S
C1161      C1162   1.406       .  A
C1161      C1166   1.401       .  A
C1161      H1168   1.084       .  S
C1162      C1163   1.415       .  A
C1163      C1164   1.400       .  A
C1163      N1170   1.433       .  S
C1164      C1165   1.398       .  A
C1164      H1169   1.084       .  S
C1165      C1166   1.404       .  A
C1166      N1167   1.432       .  S
N1167      H1171   1.046       .  S
N1167      H1172   1.046       .  S
N1170      H1173   1.046       .  S
N1170      H1174   1.046       .  S
C1175      C1176   1.406       .  A
C1175      C1180   1.404       .  A
C1175      H1182   1.083       .  S
C1176      C1177   1.417       .  A
C1177      C1178   1.403       .  A
C1177      N1184   1.438       .  S
C1178      C1179   1.401       .  A
C1178      H1183   1.084       .  S
C1179      C1180   1.410       .  A
C1180      N1181   1.438       .  S
N1181      H1185   1.046       .  S
N1181      H1186   1.044       .  S
N1184      H1187   1.046       .  S
N1184      H1188   1.046       .  S
