geometry optimzed in LAMMPS
_audit_creation_date              2020-11-30 
_audit_creation_method            'lammps2cif' 
_symmetry_space_group_name_H-M    'P1' 
_symmetry_Int_Tables_number       1 
_symmetry_cell_setting            triclinic 
loop_ 
_symmetry_equiv_pos_as_xyz 
  x,y,z 
_cell_length_a                    57.80602979369546 
_cell_length_b                    57.7025656497994 
_cell_length_c                    58.26145870650124 
_cell_angle_alpha                 89.92607690417881 
_cell_angle_beta                  90.09120876077138 
_cell_angle_gamma                 89.95926016095156 
loop_ 
_atom_site_label 
_atom_site_type_symbol 
_atom_site_fract_x 
_atom_site_fract_y 
_atom_site_fract_z 
_atom_site_charge 
C1          C  0.71879396  0.75046356  0.72163222     0.02970
C2          C  0.70999321  0.73974584  0.74143256    -0.13180
C3          C  0.71848520  0.71812145  0.74857278     0.00470
C4          C  0.73688669  0.70791074  0.73658111    -0.11710
C5          C  0.74693411  0.71908687  0.71765130     0.02960
C6          C  0.73805462  0.74062970  0.71068381    -0.11130
H7          H  0.69524759  0.74727125  0.75015308     0.08550
H8          H  0.74269423  0.69072741  0.74144196     0.06080
H9          H  0.74518069  0.74899858  0.69563080     0.05930
C10         C  0.20938188  0.71811975  0.17875296     0.02970
C11         C  0.18826674  0.70906577  0.18677597    -0.13180
C12         C  0.17944396  0.71560862  0.20838509     0.00470
C13         C  0.19149967  0.73270146  0.22094306    -0.11710
C14         C  0.21134285  0.74344309  0.21193710     0.02960
C15         C  0.22020597  0.73596889  0.19087265    -0.11130
H16         H  0.17944119  0.69611655  0.17660852     0.08550
H17         H  0.18561458  0.73753881  0.23792086     0.06080
H18         H  0.23631549  0.74314784  0.18454633     0.05930
C19         C  0.72091577  0.21062574  0.74978259     0.02970
C20         C  0.70752869  0.19461930  0.73703670    -0.13180
C21         C  0.71628173  0.18421516  0.71702994     0.00470
C22         C  0.73759467  0.19144395  0.70835340    -0.11710
C23         C  0.75047905  0.20827787  0.71980092     0.02960
C24         C  0.74308319  0.21630643  0.74137335    -0.11130
H25         H  0.69014828  0.19032107  0.74249767     0.08550
H26         H  0.74356795  0.18486407  0.69197521     0.06080
H27         H  0.75427266  0.22784141  0.75084512     0.05930
C28         C  0.17876921  0.20942780  0.71890627     0.02970
C29         C  0.18569989  0.18725446  0.71160374    -0.13180
C30         C  0.20788275  0.17862773  0.71706765     0.00470
C31         C  0.22151641  0.19162290  0.73261400    -0.11710
C32         C  0.21298494  0.21198834  0.74274954     0.02960
C33         C  0.19195336  0.22119435  0.73523628    -0.11130
H34         H  0.17409275  0.17749439  0.70079177     0.08550
H35         H  0.23889106  0.18604837  0.73688157     0.06080
H36         H  0.18631757  0.23799079  0.74141450     0.05930
C37         C  0.21329681  0.74301500  0.71668822     0.02970
C38         C  0.19292731  0.73486531  0.70659924    -0.13180
C39         C  0.17980315  0.71779010  0.71747952     0.00470
C40         C  0.18657996  0.70953615  0.73920994    -0.11710
C41         C  0.20803469  0.71604599  0.74878391     0.02960
C42         C  0.22127002  0.73289233  0.73713508    -0.11130
H43         H  0.18762955  0.74137390  0.68993185     0.08550
H44         H  0.17559586  0.69721598  0.74796764     0.06080
H45         H  0.23797072  0.73808465  0.74383211     0.05930
C46         C  0.71626156  0.20822582  0.18016949     0.02970
C47         C  0.70709562  0.18884342  0.19161560    -0.13180
C48         C  0.71591454  0.18201015  0.21301821     0.00470
C49         C  0.73458589  0.19398873  0.22262076    -0.11710
C50         C  0.74519027  0.21223997  0.21064873     0.02960
C51         C  0.73603099  0.21906314  0.18928513    -0.11130
H52         H  0.69212483  0.18001141  0.18461694     0.08550
H53         H  0.74060175  0.18931489  0.23963806     0.06080
H54         H  0.74356857  0.23366975  0.18032614     0.05930
O55         O  0.49005548  0.48794852  0.09054642    -0.73110
O56         O  0.43869488  0.44190092  0.09011604    -0.74090
O57         O  0.44143126  0.49063789  0.09115152    -0.62710
O58         O  0.48745428  0.43918278  0.08967198    -0.71120
O59         O  0.48792871  0.43793164  0.12773397    -0.70670
O60         O  0.44164548  0.49032921  0.12925402    -0.61920
O61         O  0.43864762  0.44082008  0.12821809    -0.74430
O62         O  0.49104739  0.48736287  0.12861027    -0.73210
Cu63       Cu  0.46438023  0.46493401  0.08912648     1.04560
Cu64       Cu  0.46481974  0.46407878  0.12986832     1.04330
C65         C  0.49880203  0.49490421  0.10944347     0.93090
C66         C  0.43049522  0.43409887  0.10891573     0.92230
C67         C  0.43436587  0.49876231  0.11026381     0.84380
C68         C  0.49500144  0.43037895  0.10835065     0.90650
N69         N  0.33297201  0.34012977  0.08706547    -0.27450
N70         N  0.34277953  0.34180238  0.06669301    -0.35310
C71         C  0.36062274  0.35663705  0.06791961     0.00890
C72         C  0.36222759  0.36457124  0.09023008     0.06910
C73         C  0.34441806  0.35380679  0.10198721    -0.06190
H74         H  0.37121179  0.36181041  0.05350501     0.07580
H75         H  0.33975370  0.35622346  0.11979364     0.08780
Cu76       Cu  0.33007799  0.32476555  0.03818595     0.44170
Cu77       Cu  0.30430756  0.31920651  0.09207756     0.41990
Cu78       Cu  0.28535417  0.28129893  0.04374847     0.43880
N79         N  0.31370798  0.30923255  0.01067018    -0.34840
N80         N  0.29718620  0.29345850  0.01202236    -0.29090
C81         C  0.29007082  0.28820611  0.99050646    -0.05190
C82         C  0.30288089  0.30135939  0.97510418     0.07020
C83         C  0.31760429  0.31437552  0.98860367     0.00820
H84         H  0.27658672  0.27588308  0.98641392     0.08470
H85         H  0.33017864  0.32698907  0.98288278     0.07550
N86         N  0.27566316  0.27723029  0.07812281    -0.36290
N87         N  0.28063001  0.29236962  0.09444428    -0.28470
C88         C  0.27072150  0.28556394  0.11410742    -0.03710
C89         C  0.25971891  0.26458044  0.11058018     0.04900
C90         C  0.26316629  0.25987244  0.08743053     0.02990
H91         H  0.27217316  0.29494735  0.13009607     0.08100
H92         H  0.25753614  0.24469522  0.07810486     0.06930
N93         N  0.33900569  0.59531938  0.08969929    -0.27450
N94         N  0.34096629  0.58535200  0.06941201    -0.35310
C95         C  0.35630185  0.56794944  0.07077432     0.00890
C96         C  0.36440471  0.56681397  0.09304628     0.06910
C97         C  0.35309597  0.58440125  0.10469226    -0.06190
H98         H  0.36178449  0.55742647  0.05642067     0.07580
H99         H  0.35549104  0.58934842  0.12243531     0.08780
Cu100      Cu  0.32421611  0.59722245  0.04046703     0.44170
Cu101      Cu  0.31752374  0.62376561  0.09445620     0.41990
Cu102      Cu  0.28286840  0.64377306  0.04431234     0.43880
N103        N  0.30918191  0.61281565  0.01232962    -0.34840
N104        N  0.29416313  0.63006850  0.01322169    -0.29090
C105        C  0.28889712  0.63662036  0.99158374    -0.05190
C106        C  0.30126440  0.62270542  0.97656991     0.07020
C107        C  0.31386065  0.60787581  0.99036292     0.00820
H108        H  0.27719863  0.65057884  0.98715271     0.08470
H109        H  0.32590840  0.59463383  0.98490922     0.07550
N110        N  0.27782537  0.65445889  0.07809735    -0.36290
N111        N  0.29142826  0.64852769  0.09543899    -0.28470
C112        C  0.28372502  0.65875179  0.11462612    -0.03710
C113        C  0.26384347  0.67111908  0.10950867     0.04900
C114        C  0.26069872  0.66809104  0.08609528     0.02990
H115        H  0.29155641  0.65651056  0.13135570     0.08100
H116        H  0.24659656  0.67466358  0.07573460     0.06930
N117        N  0.59657046  0.33953986  0.08903411    -0.27450
N118        N  0.59190619  0.34661006  0.06799115    -0.35310
C119        C  0.57439801  0.36183796  0.06853055     0.00890
C120        C  0.56734272  0.36436424  0.09103121     0.06910
C121        C  0.58184001  0.34999136  0.10368438    -0.06190
H122        H  0.56686381  0.36995622  0.05352665     0.07580
H123        H  0.58133224  0.34692920  0.12199441     0.08780
Cu124      Cu  0.60757461  0.33295833  0.03939306     0.44170
Cu125      Cu  0.62226231  0.31502002  0.09495064     0.41990
Cu126      Cu  0.64396079  0.28241209  0.04400168     0.43880
N127        N  0.62018348  0.31500894  0.01162726    -0.34840
N128        N  0.63324816  0.29624093  0.01276634    -0.29090
C129        C  0.63761185  0.28885102  0.99123347    -0.05190
C130        C  0.62659726  0.30375577  0.97605692     0.07020
C131        C  0.61577651  0.32004089  0.98962251     0.00820
H132        H  0.64785962  0.27375870  0.98699133     0.08470
H133        H  0.60524955  0.33448692  0.98399840     0.07550
N134        N  0.65334219  0.27584999  0.07788451    -0.36290
N135        N  0.64671194  0.28854376  0.09561934    -0.28470
C136        C  0.65653103  0.28004823  0.11473511    -0.03710
C137        C  0.66940570  0.26065505  0.10906448     0.04900
C138        C  0.66705841  0.25856489  0.08549017     0.02990
H139        H  0.65366724  0.28693466  0.13175619     0.08100
H140        H  0.67419340  0.24509631  0.07471438     0.06930
N141        N  0.59424815  0.59243829  0.09070060    -0.27450
N142        N  0.58501505  0.59036001  0.07005009    -0.35310
C143        C  0.56796306  0.57461034  0.07071143     0.00890
C144        C  0.56632791  0.56613710  0.09282975     0.06910
C145        C  0.58322043  0.57786757  0.10516326    -0.06190
H146        H  0.55812237  0.56897738  0.05592744     0.07580
H147        H  0.58771285  0.57535389  0.12302203     0.08780
Cu148      Cu  0.59781963  0.60660916  0.04117065     0.44170
Cu149      Cu  0.62243183  0.61427477  0.09658530     0.41990
Cu150      Cu  0.64938290  0.64051098  0.04456433     0.43880
N151        N  0.61481930  0.61949301  0.01275987    -0.34840
N152        N  0.63414050  0.63166809  0.01356688    -0.29090
C153        C  0.64105501  0.63634800  0.99193974    -0.05190
C154        C  0.62521321  0.62653855  0.97696264     0.07020
C155        C  0.60887921  0.61605296  0.99079925     0.00820
H156        H  0.65646443  0.64598652  0.98749927     0.08470
H157        H  0.59387205  0.60628946  0.98536986     0.07550
N158        N  0.65901406  0.64760918  0.07813452    -0.36290
N159        N  0.64954534  0.63823613  0.09664841    -0.28470
C160        C  0.65885559  0.64820919  0.11535544    -0.03710
C161        C  0.67479470  0.66464297  0.10831214     0.04900
C162        C  0.67444679  0.66378180  0.08463612     0.02990
H163        H  0.65350294  0.64468279  0.13279670     0.08100
H164        H  0.68375954  0.67498196  0.07296344     0.06930
O165        O  0.43867986  0.44088614  0.79747009    -0.73110
O166        O  0.49024228  0.48785739  0.79966475    -0.74090
O167        O  0.48810932  0.43864829  0.79882423    -0.62710
O168        O  0.44092061  0.49026498  0.79816249    -0.71120
O169        O  0.44019910  0.48937979  0.83626440    -0.70670
O170        O  0.48683159  0.43828092  0.83693055    -0.61920
O171        O  0.48872192  0.48712816  0.83770736    -0.74430
O172        O  0.43815610  0.44061229  0.83557457    -0.73210
Cu173      Cu  0.46451521  0.46441422  0.79712201     1.04560
Cu174      Cu  0.46343289  0.46380490  0.83787880     1.04330
C175        C  0.43027980  0.43346556  0.81638783     0.93090
C176        C  0.49754848  0.49487901  0.81917803     0.92230
C177        C  0.49493201  0.43048055  0.81808837     0.84380
C178        C  0.43328878  0.49800189  0.81726242     0.90650
N179        N  0.34187874  0.33118793  0.83781545    -0.27450
N180        N  0.34624838  0.33854864  0.85877547    -0.35310
C181        C  0.36074621  0.35663449  0.85774831     0.00890
C182        C  0.36541752  0.36122705  0.83490945     0.06910
C183        C  0.35315687  0.34470253  0.82267471    -0.06190
H184        H  0.36684680  0.36621999  0.87250948     0.07580
H185        H  0.35193492  0.34306527  0.80422300     0.08780
Cu186      Cu  0.32987717  0.32505715  0.88710381     0.44170
Cu187      Cu  0.31923938  0.30418620  0.83232077     0.41990
Cu188      Cu  0.28086300  0.28637142  0.88074382     0.43880
N189        N  0.31180393  0.31118993  0.91422172    -0.34840
N190        N  0.29394763  0.29695384  0.91275874    -0.29090
C191        C  0.28750501  0.29098258  0.93431382    -0.05190
C192        C  0.30207467  0.30218335  0.94976395     0.07020
C193        C  0.31708849  0.31478829  0.93628724     0.00820
H194        H  0.27350454  0.27925773  0.93841067     0.08470
H195        H  0.33123675  0.32560366  0.94201493     0.07550
N196        N  0.27647356  0.27698417  0.84612049    -0.36290
N197        N  0.29174169  0.28160218  0.82984278    -0.28470
C198        C  0.28496409  0.27173523  0.81014640    -0.03710
C199        C  0.26390246  0.26100726  0.81356293     0.04900
C200        C  0.25903828  0.26469366  0.83668512     0.02990
H201        H  0.29457752  0.27280656  0.79427451     0.08100
H202        H  0.24382947  0.25912071  0.84595247     0.06930
N203        N  0.33734208  0.59423406  0.83733862    -0.27450
N204        N  0.34100481  0.58585555  0.85813513    -0.35310
C205        C  0.35681380  0.56887126  0.85706125     0.00890
C206        C  0.36353087  0.56635185  0.83448051     0.06910
C207        C  0.35083887  0.58267835  0.82232469    -0.06190
H208        H  0.36349460  0.55952519  0.87175844     0.07580
H209        H  0.35188023  0.58635505  0.80414858     0.08780
Cu210      Cu  0.32575525  0.59898132  0.88731403     0.44170
Cu211      Cu  0.31470877  0.62177128  0.83188653     0.41990
Cu212      Cu  0.28643776  0.64691261  0.88369123     0.43880
N213        N  0.31102237  0.61451007  0.91559290    -0.34840
N214        N  0.29657245  0.63223789  0.91471467    -0.29090
C215        C  0.29056472  0.63809811  0.93631453    -0.05190
C216        C  0.30189569  0.62326256  0.95132443     0.07020
C217        C  0.31466782  0.60861199  0.93755230     0.00820
H218        H  0.27894635  0.65210553  0.94072547     0.08470
H219        H  0.32591802  0.59466238  0.94302723     0.07550
N220        N  0.27954302  0.65673049  0.85001144    -0.36290
N221        N  0.28993434  0.64801368  0.83169172    -0.28470
C222        C  0.28034535  0.65729302  0.81277686    -0.03710
C223        C  0.26298812  0.67236631  0.81939997     0.04900
C224        C  0.26297518  0.67163095  0.84311650     0.02990
H225        H  0.28482729  0.65247281  0.79540527     0.08100
H226        H  0.25105213  0.68037185  0.85448969     0.06930
N227        N  0.59210640  0.33519417  0.83712770    -0.27450
N228        N  0.58800219  0.34270271  0.85813244    -0.35310
C229        C  0.57216766  0.35967506  0.85738429     0.00890
C230        C  0.56595423  0.36314087  0.83478678     0.06910
C231        C  0.57888688  0.34735760  0.82227434    -0.06190
H232        H  0.56513948  0.36835155  0.87227483     0.07580
H233        H  0.57817292  0.34443510  0.80395593     0.08780
Cu234      Cu  0.60270420  0.32848381  0.88704689     0.44170
Cu235      Cu  0.61474848  0.30776365  0.83125132     0.41990
Cu236      Cu  0.64078200  0.27979619  0.88312333     0.43880
N237        N  0.61686260  0.31223387  0.91517313    -0.34840
N238        N  0.63079289  0.29410964  0.91426188    -0.29090
C239        C  0.63661212  0.28793279  0.93586076    -0.05190
C240        C  0.62572935  0.30304068  0.95085789     0.07020
C241        C  0.61340359  0.31813276  0.93710937     0.00820
H242        H  0.64794299  0.27366556  0.94026710     0.08470
H243        H  0.60262709  0.33242905  0.94256801     0.07550
N244        N  0.64816099  0.27097071  0.84933723    -0.36290
N245        N  0.63877047  0.28080642  0.83097949    -0.28470
C246        C  0.64857031  0.27177920  0.81209244    -0.03710
C247        C  0.66493879  0.25564086  0.81881091     0.04900
C248        C  0.66422157  0.25554948  0.84251321     0.02990
H249        H  0.64483020  0.27733805  0.79473726     0.08100
H250        H  0.67529962  0.24579449  0.85398248     0.06930
N251        N  0.58674991  0.59729750  0.83954579    -0.27450
N252        N  0.58007381  0.59248780  0.86063621    -0.35310
C253        C  0.56486452  0.57498808  0.86017300     0.00890
C254        C  0.56207134  0.56807014  0.83764214     0.06910
C255        C  0.57619028  0.58264419  0.82492266    -0.06190
H256        H  0.55712266  0.56724152  0.87523375     0.07580
H257        H  0.57915183  0.58213460  0.80660574     0.08780
Cu258      Cu  0.59491715  0.60755755  0.88891158     0.44170
Cu259      Cu  0.61129493  0.62261549  0.83357795     0.41990
Cu260      Cu  0.64823327  0.63999935  0.88319359     0.43880
N261        N  0.61393692  0.61952653  0.91619170    -0.34840
N262        N  0.63364802  0.63104782  0.91483645    -0.29090
C263        C  0.64105296  0.63564056  0.93637089    -0.05190
C264        C  0.62514277  0.62640405  0.95170275     0.07020
C265        C  0.60831592  0.61636490  0.93823433     0.00820
H266        H  0.65673269  0.64497674  0.94052781     0.08470
H267        H  0.59299181  0.60730147  0.94395296     0.07550
N268        N  0.65368214  0.64969353  0.84899005    -0.36290
N269        N  0.63896558  0.64527699  0.83213687    -0.28470
C270        C  0.64621482  0.65582935  0.81295064    -0.03710
C271        C  0.66704847  0.66673179  0.81736713     0.04900
C272        C  0.67123196  0.66246003  0.84050296     0.02990
H273        H  0.63707289  0.65516575  0.79675793     0.08100
H274        H  0.68603447  0.66799318  0.85044991     0.06930
O275        O  0.43755216  0.08974942  0.44022480    -0.73110
O276        O  0.48714505  0.09030692  0.48742518    -0.74090
O277        O  0.43847915  0.09046199  0.48881860    -0.62710
O278        O  0.48632234  0.09007225  0.43906148    -0.71120
O279        O  0.48593367  0.12856438  0.43811150    -0.70670
O280        O  0.43869141  0.12895940  0.48897005    -0.61920
O281        O  0.48833862  0.12866688  0.48675325    -0.74430
O282        O  0.43617788  0.12810858  0.44003813    -0.73210
Cu283      Cu  0.46235507  0.08889125  0.46387934     1.04560
Cu284      Cu  0.46225607  0.13000087  0.46343683     1.04330
C285        C  0.42860651  0.10855065  0.43286893     0.93090
C286        C  0.49603057  0.10928448  0.49429618     0.92230
C287        C  0.43116973  0.10971240  0.49683313     0.84380
C288        C  0.49379287  0.10920663  0.43090668     0.90650
N289        N  0.33168694  0.08851468  0.33753809    -0.27450
N290        N  0.34285332  0.06854260  0.33773741    -0.35310
C291        C  0.36066447  0.06979818  0.35245643     0.00890
C292        C  0.36078079  0.09159682  0.36221939     0.06910
C293        C  0.34217523  0.10313186  0.35233952    -0.06190
H294        H  0.37202399  0.05548117  0.35664247     0.07580
H295        H  0.33619790  0.12044413  0.35628530     0.08780
Cu296      Cu  0.33171776  0.03951664  0.32033329     0.44170
Cu297      Cu  0.30231804  0.09318559  0.31722351     0.41990
Cu298      Cu  0.28327100  0.04254122  0.28217685     0.43880
N299        N  0.31661149  0.01076231  0.30560989    -0.34840
N300        N  0.29859418  0.01141478  0.29165103    -0.29090
C301        C  0.29267611  0.98952373  0.28603695    -0.05190
C302        C  0.30779625  0.97455090  0.29709896     0.07020
C303        C  0.32266467  0.98865372  0.30930833     0.00820
H304        H  0.27835396  0.98489080  0.27498727     0.08470
H305        H  0.33673579  0.98329784  0.32037255     0.07550
N306        N  0.27177977  0.07637334  0.27776819    -0.36290
N307        N  0.27741411  0.09394337  0.29126768    -0.28470
C308        C  0.26733376  0.11326530  0.28317204    -0.03710
C309        C  0.25539314  0.10790660  0.26323849     0.04900
C310        C  0.25849042  0.08429124  0.26043151     0.02990
H311        H  0.26982318  0.13033487  0.29043045     0.08100
H312        H  0.25257299  0.07382121  0.24620289     0.06930
N313        N  0.59629603  0.08873797  0.34285991    -0.27450
N314        N  0.58669853  0.06807735  0.34450102    -0.35310
C315        C  0.56837403  0.06914239  0.35850781     0.00890
C316        C  0.56605460  0.09169274  0.36600322     0.06910
C317        C  0.58410340  0.10376510  0.35580940    -0.06190
H318        H  0.55729093  0.05461914  0.36263379     0.07580
H319        H  0.58774207  0.12209452  0.35727003     0.08780
Cu320      Cu  0.59833686  0.03986172  0.32660547     0.44170
Cu321      Cu  0.62438314  0.09395955  0.32120520     0.41990
Cu322      Cu  0.63865643  0.04561546  0.28035973     0.43880
N323        N  0.61179280  0.01227267  0.30901363    -0.34840
N324        N  0.62670975  0.01363613  0.29192281    -0.29090
C325        C  0.63252946  0.99192019  0.28546768    -0.05190
C326        C  0.62054558  0.97646260  0.29931901     0.07020
C327        C  0.60762830  0.99004204  0.31391562     0.00820
H328        H  0.64482151  0.98774440  0.27211607     0.08470
H329        H  0.59627740  0.98429361  0.32751343     0.07550
N330        N  0.64994597  0.07979715  0.27757306    -0.36290
N331        N  0.64695494  0.09587280  0.29349018    -0.28470
C332        C  0.65807038  0.11520226  0.28704573    -0.03710
C333        C  0.66773319  0.11173529  0.26558118     0.04900
C334        C  0.66221644  0.08897823  0.26016261     0.02990
H335        H  0.65839980  0.13095671  0.29706834     0.08100
H336        H  0.66631901  0.07983009  0.24450775     0.06930
N337        N  0.33659589  0.09003869  0.59345070    -0.27450
N338        N  0.34182875  0.06878860  0.58679344    -0.35310
C339        C  0.35767666  0.06977505  0.57000802     0.00890
C340        C  0.36265939  0.09275205  0.56575660     0.06910
C341        C  0.34903578  0.10524173  0.58090310    -0.06190
H342        H  0.36529539  0.05483194  0.56173906     0.07580
H343        H  0.34854199  0.12386841  0.58294140     0.08780
Cu344      Cu  0.32791885  0.03928223  0.60130676     0.44170
Cu345      Cu  0.31321595  0.09613092  0.61999516     0.41990
Cu346      Cu  0.28691742  0.04413178  0.64714329     0.43880
N347        N  0.31368076  0.01108401  0.61792563    -0.34840
N348        N  0.29836352  0.01249015  0.63467162    -0.29090
C349        C  0.29323662  0.99091224  0.64199078    -0.05190
C350        C  0.30618923  0.97534553  0.62927804     0.07020
C351        C  0.31887111  0.98876139  0.61421145     0.00820
H352        H  0.28152299  0.98693605  0.65590880     0.08470
H353        H  0.33126128  0.98281052  0.60163229     0.07550
N354        N  0.27968775  0.07813152  0.65625197    -0.36290
N355        N  0.28912708  0.09666870  0.64663866    -0.28470
C356        C  0.27961105  0.11573374  0.65593831    -0.03710
C357        C  0.26348470  0.10890438  0.67210956     0.04900
C358        C  0.26395719  0.08497950  0.67185109     0.02990
H359        H  0.28340762  0.13329484  0.65061255     0.08100
H360        H  0.25294901  0.07339425  0.68153067     0.06930
N361        N  0.58704552  0.09083834  0.59501163    -0.27450
N362        N  0.57898310  0.06968506  0.59215781    -0.35310
C363        C  0.56316829  0.06979422  0.57530539     0.00890
C364        C  0.56146723  0.09211506  0.56675133     0.06910
C365        C  0.57687264  0.10508033  0.57970411    -0.06190
H366        H  0.55429997  0.05454375  0.56904741     0.07580
H367        H  0.58096335  0.12325863  0.57765327     0.08780
Cu368      Cu  0.59307030  0.04157807  0.60881487     0.44170
Cu369      Cu  0.61244696  0.09738261  0.61903569     0.41990
Cu370      Cu  0.64681816  0.04755689  0.64104808     0.43880
N371        N  0.61192547  0.01420445  0.62159913    -0.34840
N372        N  0.63168757  0.01563663  0.63298044    -0.29090
C373        C  0.63896588  0.99392545  0.63792890    -0.05190
C374        C  0.62294880  0.97838575  0.62906051     0.07020
C375        C  0.60617700  0.99192260  0.61887873     0.00820
H376        H  0.65469529  0.98978896  0.64715630     0.08470
H377        H  0.59084294  0.98608173  0.60993689     0.07550
N378        N  0.65286564  0.08240853  0.64901976    -0.36290
N379        N  0.63912979  0.09956019  0.64251066    -0.28470
C380        C  0.64618199  0.11930530  0.65235619    -0.03710
C381        C  0.66583729  0.11486668  0.66514594     0.04900
C382        C  0.66960133  0.09119566  0.66259948     0.02990
H383        H  0.63759725  0.13582575  0.65014892     0.08100
H384        H  0.68346806  0.08105648  0.67002662     0.06930
O385        O  0.49032755  0.80151036  0.48890433    -0.73110
O386        O  0.43882870  0.79970467  0.44192793    -0.74090
O387        O  0.48827919  0.79860836  0.44010516    -0.62710
O388        O  0.44035847  0.80319458  0.49064277    -0.71120
O389        O  0.44282620  0.84117665  0.48860541    -0.70670
O390        O  0.48835192  0.83704156  0.43787076    -0.61920
O391        O  0.43964063  0.83810012  0.44033537    -0.74430
O392        O  0.49116495  0.83974676  0.48616747    -0.73210
Cu393      Cu  0.46443647  0.79932807  0.46553446     1.04560
Cu394      Cu  0.46553263  0.84024376  0.46316706     1.04330
C395        C  0.49907556  0.82098328  0.49476337     0.93090
C396        C  0.43105684  0.81878030  0.43384464     0.92230
C397        C  0.49564564  0.81739042  0.43100058     0.84380
C398        C  0.43379775  0.82321033  0.49751779     0.90650
N399        N  0.33565827  0.83644373  0.33763507    -0.27450
N400        N  0.34648673  0.85657300  0.33768581    -0.35310
C401        C  0.36433408  0.85560730  0.35238118     0.00890
C402        C  0.36480914  0.83376478  0.36206745     0.06910
C403        C  0.34638326  0.82197463  0.35237866    -0.06190
H404        H  0.37541592  0.87010017  0.35660658     0.07580
H405        H  0.34064320  0.80460693  0.35644351     0.08780
Cu406      Cu  0.33471578  0.88510759  0.31994580     0.44170
Cu407      Cu  0.30643488  0.83113521  0.31776523     0.41990
Cu408      Cu  0.28662696  0.88012479  0.28113120     0.43880
N409        N  0.31855124  0.91313160  0.30503599    -0.34840
N410        N  0.30067394  0.91188661  0.29093056    -0.29090
C411        C  0.29389124  0.93362493  0.28554066    -0.05190
C412        C  0.30831431  0.94905141  0.29689530     0.07020
C413        C  0.32365878  0.93539799  0.30902416     0.00820
H414        H  0.27943726  0.93784972  0.27447919     0.08470
H415        H  0.33737731  0.94115025  0.32030169     0.07550
N416        N  0.27625927  0.84568760  0.27748048    -0.36290
N417        N  0.28212580  0.82879263  0.29174194    -0.28470
C418        C  0.27222655  0.80898745  0.28476880    -0.03710
C419        C  0.26001470  0.81325749  0.26478988     0.04900
C420        C  0.26292715  0.83677227  0.26069550     0.02990
H421        H  0.27449259  0.79244356  0.29324100     0.08100
H422        H  0.25635260  0.84659296  0.24626404     0.06930
N423        N  0.59554016  0.83716812  0.34033219    -0.27450
N424        N  0.58791585  0.85829466  0.34452783    -0.35310
C425        C  0.57026131  0.85722295  0.35938250     0.00890
C426        C  0.56641933  0.83423743  0.36476540     0.06910
C427        C  0.58279073  0.82189204  0.35243048    -0.06190
H428        H  0.56060029  0.87205946  0.36546443     0.07580
H429        H  0.58489873  0.80326871  0.35186963     0.08780
Cu430      Cu  0.60096123  0.88726244  0.32856569     0.44170
Cu431      Cu  0.62194873  0.83163711  0.31692418     0.41990
Cu432      Cu  0.64049469  0.88231309  0.28124047     0.43880
N433        N  0.61409409  0.91514521  0.31086378    -0.34840
N434        N  0.62856159  0.91394043  0.29337790    -0.29090
C435        C  0.63342203  0.93565741  0.28620396    -0.05190
C436        C  0.62125293  0.95101326  0.29992967     0.07020
C437        C  0.60926902  0.93735466  0.31528829     0.00820
H438        H  0.64489213  0.93989715  0.27216355     0.08470
H439        H  0.59782864  0.94304689  0.32882633     0.07550
N440        N  0.65047117  0.84812378  0.27605284    -0.36290
N441        N  0.64508414  0.83061184  0.28974333    -0.28470
C442        C  0.65527256  0.81130130  0.28190115    -0.03710
C443        C  0.66713757  0.81660331  0.26198340     0.04900
C444        C  0.66373250  0.84015004  0.25881154     0.02990
H445        H  0.65364409  0.79443898  0.28987550     0.08100
H446        H  0.67007957  0.85069140  0.24481162     0.06930
N447        N  0.33333632  0.83873628  0.59063600    -0.27450
N448        N  0.34602918  0.85739609  0.59417935    -0.35310
C449        C  0.36470201  0.85673722  0.58066925     0.00890
C450        C  0.36367198  0.83689842  0.56750208     0.06910
C451        C  0.34357540  0.82569340  0.57433471    -0.06190
H452        H  0.37736475  0.87048933  0.57942845     0.07580
H453        H  0.33652164  0.80980413  0.56741435     0.08780
Cu454      Cu  0.33544945  0.88515548  0.61348321     0.44170
Cu455      Cu  0.30306946  0.83342880  0.60907079     0.41990
Cu456      Cu  0.28664493  0.88138644  0.64930271     0.43880
N457        N  0.31904560  0.91394089  0.62624318    -0.34840
N458        N  0.30067371  0.91311804  0.63963485    -0.29090
C459        C  0.29323021  0.93495981  0.64343016    -0.05190
C460        C  0.30764252  0.94999631  0.63155485     0.07020
C461        C  0.32373780  0.93602121  0.62091228     0.00820
H462        H  0.27809066  0.93947004  0.65336565     0.08470
H463        H  0.33758510  0.94139818  0.60963532     0.07550
N464        N  0.27645648  0.84687248  0.65217480    -0.36290
N465        N  0.28064851  0.83053474  0.63678098    -0.28470
C466        C  0.27109852  0.81059040  0.64393410    -0.03710
C467        C  0.26096530  0.81419040  0.66513777     0.04900
C468        C  0.26472193  0.83744274  0.66979270     0.02990
H469        H  0.27221115  0.79439291  0.63467520     0.08100
H470        H  0.25980099  0.84676090  0.68512151     0.06930
N471        N  0.59509846  0.83922202  0.59147160    -0.27450
N472        N  0.58454572  0.85952775  0.59113579    -0.35310
C473        C  0.56720492  0.85896173  0.57581907     0.00890
C474        C  0.56679078  0.83728363  0.56579851     0.06910
C475        C  0.58469114  0.82509376  0.57617347    -0.06190
H476        H  0.55633370  0.87361905  0.57151543     0.07580
H477        H  0.59021847  0.80761129  0.57231711     0.08780
Cu478      Cu  0.59611870  0.88810876  0.60900335     0.44170
Cu479      Cu  0.62368604  0.83332918  0.61252916     0.41990
Cu480      Cu  0.64651178  0.88453383  0.64436190     0.43880
N481        N  0.61263846  0.91672041  0.62248164    -0.34840
N482        N  0.63161981  0.91590875  0.63510426    -0.29090
C483        C  0.63849868  0.93776291  0.63974138    -0.05190
C484        C  0.62295753  0.95287541  0.62946591     0.07020
C485        C  0.60686281  0.93888334  0.61874096     0.00820
H486        H  0.65368794  0.94226505  0.64964532     0.08470
H487        H  0.59219035  0.94434091  0.60852876     0.07550
N488        N  0.65612351  0.85036572  0.65027203    -0.36290
N489        N  0.64877320  0.83231902  0.63828095    -0.28470
C490        C  0.65809669  0.81296059  0.64721127    -0.03710
C491        C  0.67153980  0.81895384  0.66598582     0.04900
C492        C  0.66991671  0.84283088  0.66735373     0.02990
H493        H  0.65453741  0.79563689  0.64106642     0.08100
H494        H  0.67749266  0.85388065  0.68032653     0.06930
C495        C  0.71732747  0.74863490  0.20906085     0.02970
C496        C  0.71156192  0.74310277  0.18631637    -0.13180
C497        C  0.71871416  0.72193883  0.17664190     0.00470
C498        C  0.73536692  0.70877662  0.18879065    -0.11710
C499        C  0.74333110  0.71562952  0.21058959     0.02960
C500        C  0.73305709  0.73484192  0.22110215    -0.11130
H501        H  0.70041399  0.75472951  0.17683886     0.08550
H502        H  0.74183709  0.69280364  0.18156373     0.06080
H503        H  0.73732599  0.73911292  0.23872161     0.05930
O504        O  0.12653854  0.49130762  0.48740190    -0.73110
O505        O  0.13145317  0.43895545  0.44098619    -0.74090
O506        O  0.12974483  0.48902518  0.43854987    -0.62710
O507        O  0.12897306  0.44175940  0.48977465    -0.71120
O508        O  0.09071082  0.43975622  0.48696930    -0.70670
O509        O  0.09134614  0.48818169  0.43759440    -0.61920
O510        O  0.09316041  0.43893436  0.43873991    -0.74430
O511        O  0.08846512  0.48812498  0.48608866    -0.73210
Cu512      Cu  0.13061269  0.46532597  0.46417399     1.04560
Cu513      Cu  0.08969225  0.46370212  0.46216500     1.04330
C514        C  0.10649472  0.49770421  0.49431763     0.93090
C515        C  0.11266557  0.43038247  0.43300804     0.92230
C516        C  0.11054515  0.49645583  0.43049155     0.84380
C517        C  0.10962987  0.43343875  0.49643658     0.90650
N518        N  0.09095150  0.33653113  0.33613468    -0.27450
N519        N  0.06995334  0.34418245  0.34068971    -0.35310
C520        C  0.07113470  0.35992032  0.35758413     0.00890
C521        C  0.09402093  0.36214127  0.36426324     0.06910
C522        C  0.10616650  0.34702441  0.35024777    -0.06190
H523        H  0.05633035  0.36867762  0.36491158     0.07580
H524        H  0.12455138  0.34350923  0.35063586     0.08780
Cu525      Cu  0.04076982  0.33098284  0.32497387     0.44170
Cu526      Cu  0.09638495  0.31170788  0.31111345     0.41990
Cu527      Cu  0.04523095  0.28388885  0.28382597     0.43880
N528        N  0.01272326  0.31448711  0.31030884    -0.34840
N529        N  0.01377909  0.29729051  0.29536179    -0.29090
C530        C  0.99199945  0.29077893  0.28994091    -0.05190
C531        C  0.97673057  0.30457219  0.30220553     0.07020
C532        C  0.99053284  0.31931002  0.31486387     0.00820
H533        H  0.98764275  0.27699300  0.27813943     0.08470
H534        H  0.98492742  0.33260672  0.32668461     0.07550
N535        N  0.07967087  0.27600399  0.27632584    -0.36290
N536        N  0.09762360  0.28659592  0.28578514    -0.28470
C537        C  0.11719892  0.27778214  0.27708830    -0.03710
C538        C  0.11154940  0.26054627  0.26166157     0.04900
C539        C  0.08756594  0.25988626  0.26152546     0.02990
H540        H  0.13440714  0.28328404  0.28197916     0.08100
H541        H  0.07667292  0.24833673  0.25167621     0.06930
N542        N  0.08911742  0.59647189  0.33943073    -0.27450
N543        N  0.06807390  0.58876734  0.34383436    -0.35310
C544        C  0.06931262  0.57151708  0.35926680     0.00890
C545        C  0.09226193  0.56814769  0.36485434     0.06910
C546        C  0.10445886  0.58421931  0.35200873    -0.06190
H547        H  0.05459056  0.56208755  0.36590127     0.07580
H548        H  0.12299827  0.58676797  0.35178653     0.08780
Cu549      Cu  0.03873881  0.60198095  0.32845404     0.44170
Cu550      Cu  0.09471978  0.62314108  0.31606025     0.41990
Cu551      Cu  0.04308466  0.64799383  0.28681676     0.43880
N552        N  0.01063529  0.61651779  0.31199666    -0.34840
N553        N  0.01171803  0.63360457  0.29691125    -0.29090
C554        C  0.99008012  0.63866732  0.28973306    -0.05190
C555        C  0.97486339  0.62387150  0.30083108     0.07020
C556        C  0.98853483  0.61015003  0.31476024     0.00820
H557        H  0.98581406  0.65185937  0.27720992     0.08470
H558        H  0.98289807  0.59645928  0.32614664     0.07550
N559        N  0.07718938  0.65709931  0.27982230    -0.36290
N560        N  0.09546798  0.64843730  0.29058076    -0.28470
C561        C  0.11472555  0.65718263  0.28105248    -0.03710
C562        C  0.10838937  0.67185734  0.26334788     0.04900
C563        C  0.08446402  0.67144343  0.26306134     0.02990
H564        H  0.13214510  0.65239355  0.28598095     0.08100
H565        H  0.07320070  0.68014235  0.25095446     0.06930
N566        N  0.09027863  0.33822658  0.59295394    -0.27450
N567        N  0.06929346  0.34121064  0.58447476    -0.35310
C568        C  0.07003106  0.35687737  0.56747906     0.00890
C569        C  0.09260810  0.36420945  0.56504371     0.06910
C570        C  0.10510869  0.35202324  0.58143293    -0.06190
H571        H  0.05509876  0.36300521  0.55802330     0.07580
H572        H  0.12339649  0.35355158  0.58510937     0.08780
Cu573      Cu  0.04038200  0.32523147  0.59755219     0.44170
Cu574      Cu  0.09608851  0.31578407  0.62035261     0.41990
Cu575      Cu  0.04525373  0.28282334  0.64241771     0.43880
N576        N  0.01241159  0.31062627  0.61383101    -0.34840
N577        N  0.01372924  0.29489184  0.63027043    -0.29090
C578        C  0.99217620  0.29000483  0.63764704    -0.05190
C579        C  0.97678240  0.30352818  0.62523845     0.07020
C580        C  0.99022409  0.31630103  0.61033552     0.00820
H581        H  0.98811320  0.27803862  0.65136628     0.08470
H582        H  0.98441117  0.32911322  0.59804032     0.07550
N583        N  0.07930960  0.27742050  0.65239181    -0.36290
N584        N  0.09708061  0.29008043  0.64545960    -0.28470
C585        C  0.11635860  0.28220316  0.65569948    -0.03710
C586        C  0.11069004  0.26334506  0.66927937     0.04900
C587        C  0.08700569  0.26086623  0.66681677     0.02990
H588        H  0.13345330  0.28926028  0.65284631     0.08100
H589        H  0.07620522  0.24764979  0.67446074     0.06930
N590        N  0.08803916  0.59409207  0.59081745    -0.27450
N591        N  0.06846981  0.58241308  0.59243029    -0.35310
C592        C  0.06908380  0.56425933  0.57811173     0.00890
C593        C  0.08996200  0.56452799  0.56661992     0.06910
C594        C  0.10169128  0.58365050  0.57515644    -0.06190
H595        H  0.05480183  0.55248499  0.57526304     0.07580
H596        H  0.11839997  0.59002765  0.56969727     0.08780
Cu597      Cu  0.04028406  0.59363123  0.61096797     0.44170
Cu598      Cu  0.09358519  0.62405233  0.60991703     0.41990
Cu599      Cu  0.04422494  0.64447567  0.64549984     0.43880
N600        N  0.01188053  0.60993017  0.62496039    -0.34840
N601        N  0.01289579  0.62908128  0.63730720    -0.29090
C602        C  0.99119418  0.63584968  0.64249731    -0.05190
C603        C  0.97596067  0.62003050  0.63294016     0.07020
C604        C  0.98969832  0.60389786  0.62198503     0.00820
H605        H  0.98687146  0.65112921  0.65234299     0.08470
H606        H  0.98403727  0.58905382  0.61215112     0.07550
N607        N  0.07823975  0.65530663  0.64919985    -0.36290
N608        N  0.09540883  0.64921656  0.63545502    -0.28470
C609        C  0.11496065  0.65930441  0.64285234    -0.03710
C610        C  0.11015772  0.67175629  0.66259396     0.04900
C611        C  0.08663996  0.66888265  0.66602887     0.02990
H612        H  0.13172496  0.65682204  0.63499892     0.08100
H613        H  0.07649817  0.67539999  0.68021024     0.06930
O614        O  0.84170457  0.48457041  0.48758939    -0.73110
O615        O  0.83577024  0.43807340  0.43753268    -0.74090
O616        O  0.83887688  0.48664685  0.43924227    -0.62710
O617        O  0.83867617  0.43616620  0.48583416    -0.71120
O618        O  0.80049945  0.43804320  0.48822330    -0.70670
O619        O  0.80076628  0.48982678  0.44131169    -0.61920
O620        O  0.79743712  0.44020492  0.43934140    -0.74430
O621        O  0.80392283  0.48786782  0.48985407    -0.73210
Cu622      Cu  0.83997204  0.46126683  0.46247094     1.04560
Cu623      Cu  0.79922857  0.46403412  0.46479100     1.04330
C624        C  0.82404005  0.49404093  0.49663427     0.93090
C625        C  0.81584383  0.43178511  0.43049479     0.92230
C626        C  0.82011954  0.49654622  0.43306466     0.84380
C627        C  0.81971717  0.42889597  0.49435669     0.90650
N628        N  0.83689144  0.33410745  0.33810335    -0.27450
N629        N  0.85787038  0.34187136  0.34266602    -0.35310
C630        C  0.85641732  0.35927142  0.35786208     0.00890
C631        C  0.83336955  0.36260917  0.36314604     0.06910
C632        C  0.82138158  0.34636316  0.35035154    -0.06190
H633        H  0.87103734  0.36888641  0.36448247     0.07580
H634        H  0.80283974  0.34388111  0.34972888     0.08780
Cu635      Cu  0.88720945  0.32838074  0.32759394     0.44170
Cu636      Cu  0.83158104  0.30788221  0.31448236     0.41990
Cu637      Cu  0.88268723  0.28405406  0.28379530     0.43880
N638        N  0.91527432  0.31304702  0.31186251    -0.34840
N639        N  0.91418620  0.29676806  0.29594756    -0.29090
C640        C  0.93594890  0.29088430  0.28984512    -0.05190
C641        C  0.95124441  0.30422995  0.30257961     0.07020
C642        C  0.93747187  0.31799481  0.31628189     0.00820
H643        H  0.94027598  0.27799634  0.27708524     0.08470
H644        H  0.94310344  0.33075636  0.32866508     0.07550
N645        N  0.84830554  0.27571111  0.27655750    -0.36290
N646        N  0.83035796  0.28385895  0.28812889    -0.28470
C647        C  0.81082245  0.27518279  0.27915003    -0.03710
C648        C  0.81651698  0.26111782  0.26085763     0.04900
C649        C  0.84045929  0.26177550  0.25970156     0.02990
H650        H  0.79361194  0.27920977  0.28525092     0.08100
H651        H  0.85134462  0.25309367  0.24730818     0.06930
N652        N  0.83771083  0.59176044  0.33607709    -0.27450
N653        N  0.85765528  0.58065374  0.33536687    -0.35310
C654        C  0.85719827  0.56303045  0.35037273     0.00890
C655        C  0.83598335  0.56316731  0.36128598     0.06910
C656        C  0.82396440  0.58159691  0.35176936    -0.06190
H657        H  0.87170734  0.55173406  0.35400359     0.07580
H658        H  0.80692666  0.58769747  0.35650732     0.08780
Cu659      Cu  0.88568677  0.59246285  0.31698527     0.44170
Cu660      Cu  0.83158769  0.62045288  0.31574030     0.41990
Cu661      Cu  0.88087448  0.64369719  0.28205320     0.43880
N662        N  0.91373110  0.61021706  0.30411369    -0.34840
N663        N  0.91252617  0.62926210  0.29154335    -0.29090
C664        C  0.93420261  0.63707641  0.28775531    -0.05190
C665        C  0.94954909  0.62220580  0.29868775     0.07020
C666        C  0.93591988  0.60545247  0.30879527     0.00820
H667        H  0.93840056  0.65271841  0.27839416     0.08470
H668        H  0.94160839  0.59110464  0.31936143     0.07550
N669        N  0.84624219  0.65249799  0.27700621    -0.36290
N670        N  0.82892430  0.64458102  0.28963030    -0.28470
C671        C  0.80892041  0.65307360  0.28146712    -0.03710
C672        C  0.81369757  0.66681765  0.26267628     0.04900
C673        C  0.83753459  0.66615793  0.26033714     0.02990
H674        H  0.79203522  0.64905593  0.28840117     0.08100
H675        H  0.84774400  0.67458886  0.24721450     0.06930
N676        N  0.83799051  0.33386650  0.59166236    -0.27450
N677        N  0.85817365  0.34453692  0.59098595    -0.35310
C678        C  0.85719379  0.36192798  0.57574207     0.00890
C679        C  0.83532586  0.36227440  0.56621193     0.06910
C680        C  0.82347462  0.34427275  0.57670275    -0.06190
H681        H  0.87170539  0.37277828  0.57105588     0.07580
H682        H  0.80601822  0.33859649  0.57305513     0.08780
Cu683      Cu  0.88703206  0.33298784  0.60823881     0.44170
Cu684      Cu  0.83295122  0.30500327  0.61245881     0.41990
Cu685      Cu  0.88369736  0.28431781  0.64628466     0.43880
N686        N  0.91558270  0.31650892  0.62164578    -0.34840
N687        N  0.91481644  0.29849360  0.63563103    -0.29090
C688        C  0.93658699  0.29113690  0.63969611    -0.05190
C689        C  0.95155080  0.30521989  0.62745592     0.07020
C690        C  0.93762989  0.32106913  0.61629265     0.00820
H691        H  0.94108400  0.27626339  0.65011568     0.08470
H692        H  0.94301201  0.33462586  0.60462994     0.07550
N693        N  0.84986722  0.27337038  0.65097988    -0.36290
N694        N  0.83216116  0.27975721  0.63798028    -0.28470
C695        C  0.81294007  0.26939453  0.64578084    -0.03710
C696        C  0.81856810  0.25635401  0.66495289     0.04900
C697        C  0.84217828  0.25920081  0.66767522     0.02990
H698        H  0.79586868  0.27200358  0.63857991     0.08100
H699        H  0.85288046  0.25217354  0.68125387     0.06930
N700        N  0.83952956  0.59191696  0.59311923    -0.27450
N701        N  0.85866799  0.57984730  0.59616625    -0.35310
C702        C  0.85878054  0.56181433  0.58172453     0.00890
C703        C  0.83903069  0.56280902  0.56831182     0.06910
C704        C  0.82709488  0.58215944  0.57609342    -0.06190
H705        H  0.87289156  0.54957929  0.58020300     0.07580
H706        H  0.81103450  0.58907273  0.56941503     0.08780
Cu707      Cu  0.88590526  0.59138781  0.61585780     0.44170
Cu708      Cu  0.83284566  0.62086625  0.61299748     0.41990
Cu709      Cu  0.88267326  0.64673219  0.64404232     0.43880
N710        N  0.91439962  0.60922481  0.62763824    -0.34840
N711        N  0.91373066  0.62976141  0.63762995    -0.29090
C712        C  0.93559675  0.63687025  0.64162172    -0.05190
C713        C  0.95053817  0.61996747  0.63351154     0.07020
C714        C  0.93647737  0.60278583  0.62478721     0.00820
H715        H  0.94023561  0.65326965  0.64933526     0.08470
H716        H  0.94183500  0.58691024  0.61648710     0.07550
N717        N  0.84822800  0.65592629  0.64891283    -0.36290
N718        N  0.83056626  0.64597199  0.63832644    -0.28470
C719        C  0.81076658  0.65430876  0.64702720    -0.03710
C720        C  0.81603402  0.67064315  0.66356999     0.04900
C721        C  0.83999048  0.67126473  0.66426778     0.02990
H722        H  0.79370306  0.64864571  0.64183555     0.08100
H723        H  0.85068218  0.68186084  0.67531168     0.06930
C724        C  0.21216716  0.18030812  0.20911482     0.02970
C725        C  0.19211501  0.18957123  0.21915145    -0.13180
C726        C  0.18349271  0.21135277  0.21243067     0.00470
C727        C  0.19460562  0.22332223  0.19453205    -0.11710
C728        C  0.21340612  0.21339558  0.18298611     0.02960
C729        C  0.22211122  0.19187488  0.19029211    -0.11130
H730        H  0.18396774  0.18039871  0.23320457     0.08550
H731        H  0.18882313  0.24052353  0.18970487     0.06080
H732        H  0.23729433  0.18469105  0.18203889     0.05930
C733        C  0.81016336  0.39121406  0.41684260    -0.02010
C734        C  0.81471731  0.41465600  0.41183875     0.07670
C735        C  0.82207326  0.42109221  0.38970880    -0.02120
C736        C  0.82650598  0.40400136  0.37312884    -0.02130
C737        C  0.82410476  0.38038968  0.37881883     0.07800
C738        C  0.81519994  0.37401390  0.40044313    -0.02320
Br739      Br  0.81197843  0.34171531  0.40836965    -0.00870
Br740      Br  0.79842887  0.38264038  0.44662954    -0.00940
Br741      Br  0.83632883  0.41289193  0.34272013    -0.00900
Br742      Br  0.82681421  0.45336020  0.38241939    -0.00890
C743        C  0.81144896  0.39447313  0.54960143    -0.02010
C744        C  0.82803636  0.37685189  0.54663155     0.07670
C745        C  0.83964776  0.37469142  0.52552134    -0.02120
C746        C  0.83601222  0.39106545  0.50801616    -0.02130
C747        C  0.82057659  0.40980504  0.51145822     0.07800
C748        C  0.80769111  0.41097093  0.53207881    -0.02320
Br749      Br  0.78642836  0.43618241  0.53753288    -0.00870
Br750      Br  0.79510982  0.39693880  0.57836092    -0.00940
Br751      Br  0.85247338  0.38743953  0.47934208    -0.00900
Br752      Br  0.86067720  0.34911958  0.52055439    -0.00890
C753        C  0.80587404  0.51761643  0.39761718    -0.02010
C754        C  0.82140708  0.51596195  0.41635380     0.07670
C755        C  0.83953539  0.53228722  0.41831952    -0.02120
C756        C  0.84352692  0.54846256  0.40077857    -0.02130
C757        C  0.82938719  0.54860654  0.38108701     0.07800
C758        C  0.80996310  0.53388081  0.37996793    -0.02320
Br759      Br  0.78978390  0.53494459  0.35356186    -0.00870
Br760      Br  0.77968888  0.49701317  0.39513089    -0.00940
Br761      Br  0.86816971  0.57090443  0.40414573    -0.00900
Br762      Br  0.85865324  0.53342686  0.44544609    -0.00890
C763        C  0.81230017  0.53603183  0.54666134    -0.02010
C764        C  0.83376625  0.54742306  0.54856167     0.07670
C765        C  0.85136806  0.54243450  0.53266712    -0.02120
C766        C  0.84885556  0.52413035  0.51698255    -0.02130
C767        C  0.82719391  0.51249873  0.51461372     0.07800
C768        C  0.80872766  0.51915873  0.52943135    -0.02320
Br769      Br  0.77857476  0.50465726  0.52794608    -0.00870
Br770      Br  0.78795623  0.54265778  0.56841485    -0.00940
Br771      Br  0.87649908  0.51523171  0.50035513    -0.00900
Br772      Br  0.87865931  0.56191825  0.53115300    -0.00890
C773        C  0.12748275  0.24414316  0.22490936    -0.02010
C774        C  0.12820241  0.24574482  0.24905270     0.07670
C775        C  0.14617325  0.23463526  0.26122172    -0.02120
C776        C  0.16462307  0.22426062  0.24935855    -0.02130
C777        C  0.16390539  0.22233074  0.22511838     0.07800
C778        C  0.14463939  0.23153902  0.21309633    -0.02320
Br779      Br  0.14104490  0.22647899  0.18050593    -0.00870
Br780      Br  0.10407036  0.26058125  0.20768915    -0.00940
Br781      Br  0.19162672  0.21495170  0.26676135    -0.00900
Br782      Br  0.14512191  0.23262980  0.29434767    -0.00890
C783        C  0.12569284  0.40955667  0.39710524    -0.02010
C784        C  0.11257089  0.40999752  0.41750795     0.07670
C785        C  0.09687305  0.39179531  0.42198904    -0.02120
C786        C  0.09229323  0.37502509  0.40513524    -0.02130
C787        C  0.10275273  0.37672572  0.38334753     0.07800
C788        C  0.12022963  0.39344261  0.37969081    -0.02320
Br789      Br  0.13525529  0.39583580  0.35023200    -0.00870
Br790      Br  0.15075676  0.43109094  0.39265087    -0.00940
Br791      Br  0.07194708  0.34942619  0.41221591    -0.00900
Br792      Br  0.08182406  0.38943617  0.45153247    -0.00890
C793        C  0.09580587  0.42230591  0.53531889    -0.02010
C794        C  0.10867480  0.41670018  0.51556807     0.07670
C795        C  0.11888748  0.39458901  0.51356025    -0.02120
C796        C  0.11467940  0.37757098  0.53044530    -0.02130
C797        C  0.10052402  0.38278015  0.54944887     0.07800
C798        C  0.09179807  0.40541912  0.55224198    -0.02320
Br799      Br  0.07429349  0.41334633  0.57933038    -0.00870
Br800      Br  0.08379315  0.45329668  0.53928013    -0.00940
Br801      Br  0.12684205  0.34668012  0.52666828    -0.00900
Br802      Br  0.13732623  0.38712706  0.48699322    -0.00890
C803        C  0.10193479  0.55597542  0.40482099    -0.02010
C804        C  0.10118016  0.55080275  0.38123318     0.07670
C805        C  0.10644762  0.52825926  0.37363677    -0.02120
C806        C  0.11040390  0.51044709  0.38973016    -0.02130
C807        C  0.11016277  0.51538669  0.41339505     0.07800
C808        C  0.10720618  0.53843670  0.42079832    -0.02320
Br809      Br  0.11054481  0.54600646  0.45279287    -0.00870
Br810      Br  0.09455419  0.58681503  0.41527467    -0.00940
Br811      Br  0.11518782  0.47920035  0.37939546    -0.00900
Br812      Br  0.10737170  0.52172453  0.34119286    -0.00890
C813        C  0.08141328  0.54862269  0.52777760    -0.02010
C814        C  0.09616822  0.54945739  0.54700680     0.07670
C815        C  0.11530450  0.53438982  0.54829170    -0.02120
C816        C  0.11918268  0.51788363  0.53082689    -0.02130
C817        C  0.10370256  0.51620575  0.51197531     0.07800
C818        C  0.08464746  0.53173182  0.51071465    -0.02320
Br819      Br  0.06211498  0.53025608  0.48608557    -0.00870
Br820      Br  0.05699222  0.57134372  0.52434257    -0.00940
Br821      Br  0.14445095  0.49621844  0.53440140    -0.00900
Br822      Br  0.13540160  0.53541546  0.57477251    -0.00890
C823        C  0.78149876  0.71472690  0.23146490    -0.02010
C824        C  0.76198482  0.70266192  0.22282660     0.07670
C825        C  0.76029272  0.67847520  0.22651893    -0.02120
C826        C  0.77812665  0.66659386  0.23808316    -0.02130
C827        C  0.79661553  0.67898033  0.24805758     0.07800
C828        C  0.79809033  0.70312396  0.24492076    -0.02320
Br829      Br  0.82186747  0.72074269  0.26040027    -0.00870
Br830      Br  0.78640700  0.74706555  0.22433698    -0.00940
Br831      Br  0.77767028  0.63312713  0.23927282    -0.00900
Br832      Br  0.73292309  0.66148299  0.21758744    -0.00890
C833        C  0.70236234  0.80493650  0.23922265    -0.02010
C834        C  0.67967589  0.80008784  0.24699626     0.07670
C835        C  0.66941117  0.77856653  0.24150336    -0.02120
C836        C  0.68237608  0.76145784  0.23030887    -0.02130
C837        C  0.70439109  0.76674239  0.22148424     0.07800
C838        C  0.71428455  0.78858997  0.22571169    -0.02320
Br839      Br  0.74447499  0.79570874  0.21360362    -0.00870
Br840      Br  0.71810496  0.83293354  0.24838026    -0.00940
Br841      Br  0.67089692  0.73005520  0.22938243    -0.00900
Br842      Br  0.63710660  0.77259644  0.24766279    -0.00890
C843        C  0.39283657  0.83373492  0.42048258    -0.02010
C844        C  0.41194718  0.81898093  0.41687699     0.07670
C845        C  0.41341234  0.80618249  0.39625867    -0.02120
C846        C  0.39719120  0.81010155  0.37854524    -0.02130
C847        C  0.37946332  0.82658238  0.38153501     0.07800
C848        C  0.37677798  0.83769528  0.40283526    -0.02320
Br849      Br  0.35101007  0.85844377  0.40787614    -0.00870
Br850      Br  0.38791352  0.84782479  0.44996818    -0.00940
Br851      Br  0.40004436  0.79405467  0.34966645    -0.00900
Br852      Br  0.43810259  0.78417401  0.39163532    -0.00890
C853        C  0.40998103  0.80794814  0.53115015    -0.02010
C854        C  0.41521866  0.82599846  0.51528868     0.07670
C855        C  0.40205242  0.84690402  0.51636259    -0.02120
C856        C  0.38333006  0.84878558  0.53154922    -0.02130
C857        C  0.37932788  0.83156501  0.54813839     0.07800
C858        C  0.39244461  0.81102543  0.54776263    -0.02320
Br859      Br  0.38713060  0.78756645  0.57084076    -0.00870
Br860      Br  0.42783418  0.77962233  0.53223838    -0.00940
Br861      Br  0.36221345  0.87478085  0.52884767    -0.00900
Br862      Br  0.40954195  0.87451908  0.49886574    -0.00890
C863        C  0.52462866  0.83063805  0.37459281    -0.02010
C864        C  0.54788007  0.82545489  0.37987358     0.07670
C865        C  0.55337149  0.81446431  0.40083286    -0.02120
C866        C  0.53583429  0.81006312  0.41704464    -0.02130
C867        C  0.51290490  0.81698778  0.41243763     0.07800
C868        C  0.50724485  0.82673500  0.39096424    -0.02320
Br869      Br  0.47571721  0.83554211  0.38425496    -0.00870
Br870      Br  0.51654504  0.84328590  0.34492546    -0.00940
Br871      Br  0.54357096  0.79662141  0.44642374    -0.00900
Br872      Br  0.58513564  0.80746352  0.40831616    -0.00890
C873        C  0.53629324  0.83877258  0.50824159    -0.02010
C874        C  0.51846577  0.82229775  0.51158133     0.07670
C875        C  0.51871293  0.80842749  0.53167652    -0.02120
C876        C  0.53544966  0.81237023  0.54892498    -0.02130
C877        C  0.55184521  0.83024396  0.54633061     0.07800
C878        C  0.55270319  0.84285515  0.52561929    -0.02320
Br879      Br  0.57670586  0.86566114  0.52082922    -0.00870
Br880      Br  0.53902753  0.85547987  0.47954415    -0.00940
Br881      Br  0.53496043  0.79427650  0.57681470    -0.00900
Br882      Br  0.49537958  0.78505053  0.53673266    -0.00890
C883        C  0.22234713  0.12185584  0.23826975    -0.02010
C884        C  0.24506022  0.12471799  0.24682450     0.07670
C885        C  0.25774625  0.14458117  0.24055394    -0.02120
C886        C  0.24689186  0.16277470  0.22872130    -0.02130
C887        C  0.22408169  0.16024295  0.22026470     0.07800
C888        C  0.21224488  0.13919071  0.22431939    -0.02320
Br889      Br  0.18224916  0.13394307  0.21066820    -0.00870
Br890      Br  0.20438537  0.09499300  0.24666586    -0.00940
Br891      Br  0.26297697  0.19187223  0.22692511    -0.00900
Br892      Br  0.29056567  0.14668445  0.24696286    -0.00890
C893        C  0.40879248  0.12095841  0.39608096    -0.02010
C894        C  0.40923894  0.10703743  0.41610785     0.07670
C895        C  0.39180355  0.09010808  0.41933163    -0.02120
C896        C  0.37499479  0.08636235  0.40228823    -0.02130
C897        C  0.37569991  0.09894923  0.38157738     0.07800
C898        C  0.39215965  0.11674160  0.37878203    -0.02320
Br899      Br  0.39291968  0.13422503  0.35054429    -0.00870
Br900      Br  0.43191875  0.14457823  0.39120843    -0.00940
Br901      Br  0.35064552  0.06400957  0.40749661    -0.00900
Br902      Br  0.39054919  0.07166430  0.44708283    -0.00890
C903        C  0.40380510  0.09938712  0.55484710    -0.02010
C904        C  0.38014046  0.10131211  0.54936030     0.07670
C905        C  0.37341854  0.10873766  0.52728316    -0.02000
C906        C  0.39032743  0.11326812  0.51046412    -0.02130
C907        C  0.41388273  0.10938724  0.51542327     0.07800
C908        C  0.42063906  0.10306989  0.53781281    -0.02320
Br909      Br  0.45296591  0.09905584  0.54499937    -0.00870
Br910      Br  0.41306019  0.09123112  0.58564806    -0.00940
Br911      Br  0.38122827  0.12393205  0.48039840    -0.00900
Br912      Br  0.34103327  0.11112935  0.51966985    -0.00890
C913        C  0.50643401  0.10072463  0.39095843    -0.02010
C914        C  0.51188217  0.10863631  0.41313847     0.07670
C915        C  0.53497977  0.11395982  0.41884809    -0.02120
C916        C  0.55285104  0.10936785  0.40306659    -0.02130
C917        C  0.54749656  0.10032529  0.38120740     0.07800
C918        C  0.52414694  0.09701356  0.37486723    -0.02320
Br919      Br  0.51632496  0.08757996  0.34402679    -0.00870
Br920      Br  0.47464285  0.09470051  0.38278249    -0.00940
Br921      Br  0.58466946  0.11347509  0.41225497    -0.00900
Br922      Br  0.54223416  0.12641473  0.44871726    -0.00890
C923        C  0.54870855  0.08689993  0.52611751    -0.02010
C924        C  0.54737857  0.09951991  0.54678721     0.07670
C925        C  0.53144379  0.11796989  0.54868555    -0.02120
C926        C  0.51574327  0.12257990  0.53067931    -0.02130
C927        C  0.51533128  0.10813521  0.51108771     0.07800
C928        C  0.53252338  0.09084760  0.50853793    -0.02320
Br929      Br  0.53437999  0.07238163  0.48086302    -0.00870
Br930      Br  0.57322021  0.06455505  0.52139986    -0.00940
Br931      Br  0.49400747  0.14780199  0.53387102    -0.00900
Br932      Br  0.52967505  0.13582478  0.57664277    -0.00890
C933        C  0.41397729  0.39460253  0.80609827    -0.02010
C934        C  0.41131471  0.41640748  0.81668513     0.07670
C935        C  0.39153973  0.42093948  0.83008194    -0.02120
C936        C  0.37540650  0.40328201  0.83426790    -0.02130
C937        C  0.37956035  0.38064570  0.82609673     0.07800
C938        C  0.39842342  0.37653649  0.81124939    -0.02320
Br939      Br  0.40444980  0.34580785  0.79963759    -0.00870
Br940      Br  0.43977821  0.38887618  0.78586763    -0.00940
Br941      Br  0.34735487  0.41042815  0.85085026    -0.00900
Br942      Br  0.38656299  0.45138197  0.84300034    -0.00890
C943        C  0.50692333  0.39041465  0.82890274    -0.02010
C944        C  0.51250452  0.41196282  0.81894290     0.07670
C945        C  0.53539492  0.41642671  0.81182981    -0.02120
C946        C  0.55291606  0.39997551  0.81611378    -0.02130
C947        C  0.54741270  0.37876951  0.82678660     0.07800
C948        C  0.52427516  0.37370970  0.83243677    -0.02320
Br949      Br  0.51642902  0.34389037  0.84530353    -0.00870
Br950      Br  0.47554046  0.38388144  0.83811572    -0.00940
Br951      Br  0.58469866  0.40717681  0.80905643    -0.00900
Br952      Br  0.54309000  0.44571452  0.79776637    -0.00890
C953        C  0.42197439  0.53746852  0.83030461    -0.02010
C954        C  0.41648225  0.51726065  0.81787053     0.07670
C955        C  0.39426464  0.51476845  0.80811725    -0.02120
C956        C  0.37703312  0.53149525  0.81254380    -0.02130
C957        C  0.38218561  0.55095055  0.82625019     0.07800
C958        C  0.40493325  0.55435284  0.83429859    -0.02320
Br959      Br  0.41276832  0.58221038  0.85091243    -0.00870
Br960      Br  0.45294383  0.54205023  0.84195065    -0.00940
Br961      Br  0.34595430  0.52682372  0.80139944    -0.00900
Br962      Br  0.38693029  0.48772728  0.79006782    -0.00890
C963        C  0.51458009  0.53342470  0.80860251    -0.02010
C964        C  0.51618180  0.51229789  0.82077668     0.07670
C965        C  0.53470554  0.50865089  0.83618752    -0.02120
C966        C  0.55077695  0.52640803  0.84028953    -0.02130
C967        C  0.54796223  0.54825285  0.82972085     0.07800
C968        C  0.53029718  0.55147447  0.81327367    -0.02320
Br969      Br  0.52625451  0.58116397  0.79848055    -0.00870
Br970      Br  0.48973558  0.53860143  0.78696579    -0.00940
Br971      Br  0.57703797  0.52041964  0.86003599    -0.00900
Br972      Br  0.53823500  0.47930939  0.85192373    -0.00890
C973        C  0.67261319  0.69756913  0.13583433    -0.02010
C974        C  0.68621260  0.68225463  0.12287208     0.07670
C975        C  0.71046424  0.68380892  0.12401312    -0.02120
C976        C  0.72101710  0.69947078  0.13935485    -0.02130
C977        C  0.70745905  0.71198287  0.15544425     0.07800
C978        C  0.68291591  0.71189929  0.15250716    -0.02320
Br979      Br  0.66200196  0.73006413  0.17099416    -0.00870
Br980      Br  0.63958799  0.69919147  0.13024384    -0.00940
Br981      Br  0.75397093  0.70467395  0.13706931    -0.00900
Br982      Br  0.72928636  0.66337352  0.10565786    -0.00890
C983        C  0.22655319  0.23935393  0.12433163    -0.02010
C984        C  0.24817558  0.25016484  0.12848098     0.07670
C985        C  0.25813924  0.24843341  0.15064854    -0.02120
C986        C  0.24564437  0.23835381  0.16870328    -0.02130
C987        C  0.22502125  0.22629646  0.16424180     0.07800
C988        C  0.21562497  0.22656515  0.14192457    -0.02320
Br989      Br  0.18745066  0.20980029  0.13569779    -0.00870
Br990      Br  0.21076438  0.24308186  0.09535484    -0.00940
Br991      Br  0.25558924  0.24349368  0.19982491    -0.00900
Br992      Br  0.28977897  0.25759743  0.15649908    -0.00890
C993        C  0.39094048  0.42301056  0.09591691    -0.02010
C994        C  0.41140345  0.41715212  0.10780960     0.07670
C995        C  0.41442423  0.39441706  0.11626565    -0.02120
C996        C  0.39773352  0.37727451  0.11144874    -0.02130
C997        C  0.37792365  0.38293268  0.09846848     0.07800
C998        C  0.37418252  0.40597465  0.09141697    -0.02320
Br999      Br  0.34612219  0.41410218  0.07528643    -0.00870
Br1000     Br  0.38589941  0.45440684  0.08553410    -0.00940
Br1001     Br  0.40267643  0.34572395  0.12127006    -0.00900
Br1002     Br  0.44220434  0.38627367  0.13283342    -0.00890
C1003       C  0.55123178  0.39691328  0.11480821    -0.02010
C1004       C  0.54770056  0.37881702  0.09890628     0.07670
C1005       C  0.52577301  0.37606960  0.08855584    -0.02120
C1006       C  0.50818366  0.39241590  0.09249555    -0.02130
C1007       C  0.51223264  0.41145801  0.10712710     0.07800
C1008       C  0.53350871  0.41318616  0.11895620    -0.02320
Br1009     Br  0.53930173  0.43895912  0.13929176    -0.00870
Br1010     Br  0.58090077  0.40066428  0.12957463    -0.00940
Br1011     Br  0.47842537  0.38854229  0.07778880    -0.00900
Br1012     Br  0.51953571  0.34961578  0.06919241    -0.00890
C1013       C  0.39589300  0.51621817  0.12046581    -0.02010
C1014       C  0.41774181  0.51820210  0.10984271     0.07670
C1015       C  0.42287856  0.53797568  0.09653983    -0.02120
C1016       C  0.40570342  0.55465992  0.09226269    -0.02130
C1017       C  0.38329201  0.55168213  0.10123304     0.07800
C1018       C  0.37861237  0.53290548  0.11600627    -0.02320
Br1019     Br  0.34803651  0.52912949  0.12867323    -0.00870
Br1020     Br  0.38898351  0.48990192  0.13974236    -0.00940
Br1021     Br  0.41282259  0.58156462  0.07383951    -0.00900
Br1022     Br  0.45358601  0.54232347  0.08419599    -0.00890
C1023       C  0.51678884  0.53306165  0.12047888    -0.02010
C1024       C  0.51807866  0.51178958  0.10856853     0.07670
C1025       C  0.53698022  0.50749614  0.09386064    -0.02120
C1026       C  0.55345091  0.52492287  0.08971363    -0.02130
C1027       C  0.55127520  0.54677354  0.10033030     0.07800
C1028       C  0.53339509  0.55051346  0.11636313    -0.02320
Br1029     Br  0.53062467  0.58014229  0.13140595    -0.00870
Br1030     Br  0.49133207  0.53913935  0.14101920    -0.00940
Br1031     Br  0.57915535  0.51870071  0.06947535    -0.00900
Br1032     Br  0.54057055  0.47750821  0.07950908    -0.00890
C1033       C  0.76342514  0.24940240  0.22455992    -0.02010
C1034       C  0.76474656  0.22511179  0.22142409     0.07670
C1035       C  0.78436369  0.21299191  0.22974592    -0.02120
C1036       C  0.80137254  0.22466671  0.24265177    -0.02130
C1037       C  0.79997815  0.24887046  0.24567028     0.07800
C1038       C  0.78155601  0.26127493  0.23554718    -0.02320
Br1039     Br  0.78146175  0.29477839  0.23590558    -0.00870
Br1040     Br  0.73600650  0.26663017  0.21601075    -0.00940
Br1041     Br  0.82548025  0.20705084  0.25763991    -0.00900
Br1042     Br  0.78840949  0.18039514  0.22324436    -0.00890
C1043       C  0.68025875  0.22589559  0.16303813    -0.02010
C1044       C  0.70363682  0.21903399  0.16047480     0.07670
C1045       C  0.71512787  0.22407911  0.13964174    -0.02120
C1046       C  0.70408035  0.23757540  0.12258972    -0.02130
C1047       C  0.68082208  0.24455891  0.12546870     0.07800
C1048       C  0.66862527  0.23725617  0.14511455    -0.02320
Br1049     Br  0.63548080  0.24168658  0.14730817    -0.00870
Br1050     Br  0.66412883  0.22234146  0.19173628    -0.00940
Br1051     Br  0.72149643  0.24762159  0.09616129    -0.00900
Br1052     Br  0.74588293  0.21224017  0.13418346    -0.00890
C1053       C  0.68487336  0.16983721  0.24004650    -0.02010
C1054       C  0.70401911  0.16386836  0.22646910     0.07670
C1055       C  0.71161504  0.14072975  0.22572215    -0.02120
C1056       C  0.70026000  0.12364003  0.23887982    -0.02130
C1057       C  0.67992092  0.12932893  0.25127772     0.07800
C1058       C  0.67178880  0.15250004  0.25080235    -0.02320
Br1059     Br  0.64164499  0.16084497  0.26254885    -0.00870
Br1060     Br  0.67766614  0.20196106  0.24566213    -0.00940
Br1061     Br  0.71386885  0.09314557  0.24077870    -0.00900
Br1062     Br  0.73808853  0.13278872  0.20717677    -0.00890
C1063       C  0.22873881  0.71820146  0.78700872    -0.02010
C1064       C  0.21784966  0.70455384  0.76985530     0.07670
C1065       C  0.21889326  0.67999023  0.77199528    -0.02120
C1066       C  0.23230627  0.66971067  0.78943708    -0.02130
C1067       C  0.24580267  0.68352961  0.80411145     0.07800
C1068       C  0.24338241  0.70778475  0.80343790    -0.02320
Br1069     Br  0.26131075  0.72687706  0.82400147    -0.00870
Br1070     Br  0.22296928  0.75115604  0.78885068    -0.00940
Br1071     Br  0.23189143  0.63639581  0.79361688    -0.00900
Br1072     Br  0.20347100  0.65928914  0.75105975    -0.00890
C1073       C  0.21672508  0.78399991  0.70321759    -0.02010
C1074       C  0.22648073  0.76169283  0.70519425     0.07670
C1075       C  0.24816707  0.75704007  0.69525917    -0.02120
C1076       C  0.26006752  0.77462213  0.68339721    -0.02130
C1077       C  0.24956990  0.79655068  0.67991373     0.07800
C1078       C  0.22782166  0.80116063  0.69005306    -0.02320
Br1079     Br  0.21202147  0.83020589  0.68479916    -0.00870
Br1080     Br  0.18815482  0.79112666  0.71889007    -0.00940
Br1081     Br  0.29132046  0.76863856  0.67326714    -0.00900
Br1082     Br  0.26105344  0.72617087  0.69679226    -0.00890
C1083       C  0.16570318  0.68416006  0.69482769    -0.02010
C1084       C  0.16123958  0.70606672  0.70442618     0.07670
C1085       C  0.13994635  0.71709661  0.70004839    -0.02120
C1086       C  0.12323508  0.70615787  0.68608373    -0.02130
C1087       C  0.12714921  0.68339570  0.67786076     0.07800
C1088       C  0.14814647  0.67210623  0.68334425    -0.02320
Br1089     Br  0.15276198  0.63955242  0.67702357    -0.00870
Br1090     Br  0.19678634  0.67198210  0.69428353    -0.00940
Br1091     Br  0.09596247  0.72321886  0.67708000    -0.00900
Br1092     Br  0.13422122  0.74758079  0.71235334    -0.00890
C1093       C  0.23664665  0.24578637  0.75586479    -0.02010
C1094       C  0.22628935  0.22429670  0.76073556     0.07670
C1095       C  0.22722897  0.21529702  0.78319970    -0.02120
C1096       C  0.23972932  0.22697665  0.80044008    -0.02130
C1097       C  0.24992509  0.24878240  0.79576517     0.07800
C1098       C  0.24755992  0.25844208  0.77345280    -0.02320
Br1099     Br  0.25731457  0.28979460  0.76687089    -0.00870
Br1100     Br  0.23611580  0.25772194  0.72485030    -0.00940
Br1101     Br  0.24368613  0.21200162  0.82984684    -0.00900
Br1102     Br  0.21034042  0.18745032  0.79063914    -0.00890
C1103       C  0.13963694  0.22866618  0.71721246    -0.02010
C1104       C  0.16041445  0.22214000  0.70638946     0.07670
C1105       C  0.16477447  0.22949094  0.68374132    -0.02120
C1106       C  0.14744448  0.24058870  0.67100923    -0.02130
C1107       C  0.12703452  0.24815895  0.68195422     0.07800
C1108       C  0.12332456  0.24239402  0.70529511    -0.02320
Br1109     Br  0.09701008  0.25460408  0.72164212    -0.00870
Br1110     Br  0.13415089  0.21974269  0.74865722    -0.00940
Br1111     Br  0.15152676  0.24379655  0.63822564    -0.00900
Br1112     Br  0.19564526  0.22805207  0.67123898    -0.00890
C1113       C  0.24679531  0.12603160  0.70799506    -0.02010
C1114       C  0.24663429  0.12397037  0.68397731     0.07670
C1115       C  0.23033322  0.13644793  0.67104188    -0.02120
C1116       C  0.21629029  0.15331453  0.68160352    -0.02130
C1117       C  0.21795069  0.15730858  0.70576280     0.07800
C1118       C  0.23178666  0.14180332  0.71890426    -0.02320
Br1119     Br  0.22917212  0.14057130  0.75193297    -0.00870
Br1120     Br  0.26857081  0.10816636  0.72589328    -0.00940
Br1121     Br  0.19567230  0.17013278  0.66155663    -0.00900
Br1122     Br  0.22706409  0.12988115  0.63857400    -0.00890
C1123       C  0.68270848  0.21965180  0.80236427    -0.02010
C1124       C  0.68194469  0.24394106  0.80382936     0.07670
C1125       C  0.69732788  0.25728776  0.79067317    -0.02120
C1126       C  0.71130451  0.24671565  0.77387199    -0.02130
C1127       C  0.71061320  0.22220308  0.77065145     0.07800
C1128       C  0.69769651  0.20883160  0.78660670    -0.02320
Br1129     Br  0.70159457  0.17567871  0.78840908    -0.00870
Br1130     Br  0.66217890  0.20117019  0.82100255    -0.00940
Br1131     Br  0.73043756  0.26714341  0.75589090    -0.00900
Br1132     Br  0.69956195  0.29032168  0.79622788    -0.00890
C1133       C  0.78977206  0.20943457  0.70116125    -0.02010
C1134       C  0.76891942  0.22056732  0.70707766     0.07670
C1135       C  0.76443227  0.24305386  0.69874179    -0.02120
C1136       C  0.78172684  0.25548581  0.68732283    -0.02130
C1137       C  0.80220972  0.24418130  0.68039370     0.07800
C1138       C  0.80603450  0.22090627  0.68711445    -0.02320
Br1139     Br  0.83243312  0.20398535  0.67576091    -0.00870
Br1140     Br  0.79537784  0.17807996  0.71126135    -0.00940
Br1141     Br  0.77745599  0.28840641  0.68275338    -0.00900
Br1142     Br  0.73343936  0.25548682  0.69911537    -0.00890
C1143       C  0.68697738  0.12748760  0.70104092    -0.02010
C1144       C  0.67949036  0.13220643  0.67836193     0.07670
C1145       C  0.68429189  0.15419201  0.66859274    -0.02120
C1146       C  0.69479437  0.17161722  0.68185364    -0.02130
C1147       C  0.70278802  0.16663550  0.70417320     0.07800
C1148       C  0.69951226  0.14429378  0.71340023    -0.02320
Br1149     Br  0.71350693  0.13614036  0.74237731    -0.00870
Br1150     Br  0.67920940  0.09872035  0.71614285    -0.00940
Br1151     Br  0.69783618  0.20257259  0.66948920    -0.00900
Br1152     Br  0.67858209  0.16031607  0.63643338    -0.00890
C1153       C  0.22504523  0.80002597  0.24252900    -0.02010
C1154       C  0.24781887  0.79587047  0.25039302     0.07670
C1155       C  0.25875480  0.77463606  0.24490173    -0.02120
C1156       C  0.24645395  0.75717817  0.23329477    -0.02130
C1157       C  0.22384946  0.76147939  0.22520358     0.07800
C1158       C  0.21355168  0.78326587  0.22917178    -0.02320
Br1159     Br  0.18427727  0.79080179  0.21514785    -0.00870
Br1160     Br  0.20875351  0.82798498  0.25093895    -0.00940
Br1161     Br  0.26049390  0.72706766  0.22914014    -0.00900
Br1162     Br  0.29118461  0.76973570  0.25147675    -0.00890
C1163       C  0.22630931  0.71691778  0.13885180    -0.02010
C1164       C  0.22230351  0.70620944  0.16022898     0.07670
C1165       C  0.23227062  0.68442901  0.16481602    -0.02120
C1166       C  0.24331310  0.67202964  0.14733045    -0.02130
C1167       C  0.24844790  0.68297797  0.12623635     0.07800
C1168       C  0.24014195  0.70573776  0.12221362    -0.02320
Br1169     Br  0.24898341  0.72250270  0.09493650    -0.00870
Br1170     Br  0.21379822  0.74733699  0.13292288    -0.00940
Br1171     Br  0.24955024  0.63948026  0.15230025    -0.00900
Br1172     Br  0.23448118  0.67310596  0.19589846    -0.00890
C1173       C  0.12458081  0.70711935  0.24383912    -0.02010
C1174       C  0.12414318  0.68290465  0.24657766     0.07670
C1175       C  0.13944107  0.66907199  0.23378558    -0.02120
C1176       C  0.15702067  0.67938206  0.22054459    -0.02130
C1177       C  0.15869970  0.70393659  0.21891179     0.07800
C1178       C  0.14113279  0.71748784  0.22934844    -0.02320
Br1179     Br  0.13852657  0.75015523  0.22287297    -0.00870
Br1180     Br  0.10344237  0.72628722  0.26106093    -0.00940
Br1181     Br  0.17872985  0.65881662  0.20602169    -0.00900
Br1182     Br  0.13583592  0.63569988  0.23395600    -0.00890
C1183       C  0.78508061  0.69789385  0.71457353    -0.02010
C1184       C  0.76517704  0.70728379  0.70383464     0.07670
C1185       C  0.76258083  0.70495600  0.67975898    -0.02120
C1186       C  0.78031399  0.69495292  0.66661151    -0.02130
C1187       C  0.79925895  0.68408059  0.67749181     0.07800
C1188       C  0.80129730  0.68519308  0.70163694    -0.02320
Br1189     Br  0.82508273  0.66790523  0.71750628    -0.00870
Br1190     Br  0.79091587  0.70294495  0.74687886    -0.00940
Br1191     Br  0.77907059  0.69760753  0.63353086    -0.00900
Br1192     Br  0.73399683  0.71324166  0.66443640    -0.00890
C1193       C  0.71767066  0.78992074  0.70295013    -0.02010
C1194       C  0.70595873  0.76966066  0.71011574     0.07670
C1195       C  0.68238738  0.76672791  0.70405568    -0.02120
C1196       C  0.67078336  0.78395987  0.69143726    -0.02130
C1197       C  0.68313072  0.80291868  0.68230075     0.07800
C1198       C  0.70663826  0.80591513  0.68824266    -0.02320
Br1199     Br  0.72447802  0.83079376  0.67492133    -0.00870
Br1200     Br  0.74880917  0.79604416  0.71341622    -0.00940
Br1201     Br  0.63758450  0.78191015  0.68777533    -0.00900
Br1202     Br  0.66601739  0.73822548  0.71062252    -0.00890
C1203       C  0.70470756  0.71321215  0.78924271    -0.02010
C1204       C  0.70615172  0.70478341  0.76659105     0.07670
C1205       C  0.69540861  0.68362240  0.76090352    -0.02120
C1206       C  0.68444825  0.67038350  0.77796476    -0.02130
C1207       C  0.68159184  0.67943079  0.80039046     0.07800
C1208       C  0.69170868  0.70110430  0.80585406    -0.02320
Br1209     Br  0.68671272  0.71544149  0.83536393    -0.00870
Br1210     Br  0.72090378  0.74122183  0.79762645    -0.00940
Br1211     Br  0.67513201  0.63910978  0.77041359    -0.00900
Br1212     Br  0.69413914  0.67333527  0.72931019    -0.00890
loop_ 
_geom_bond_atom_site_label_1 
_geom_bond_atom_site_label_2 
_geom_bond_distance 
_geom_bond_site_symmetry_2 
_ccdc_geom_bond_type 
C1            C2   1.404       .  A
C1            C6   1.404       .  A
C1         C1194   1.491       .  S
C2            C3   1.403       .  A
C2            H7   1.084       .  S
C3            C4   1.403       .  A
C3         C1204   1.484       .  S
C4            C5   1.404       .  A
C4            H8   1.084       .  S
C5            C6   1.404       .  A
C5         C1184   1.492       .  S
C6            H9   1.083       .  S
C10          C11   1.408       .  A
C10          C15   1.397       .  A
C10        C1164   1.483       .  S
C11          C12   1.411       .  A
C11          H16   1.082       .  S
C12          C13   1.412       .  A
C12        C1177   1.507       .  S
C13          C14   1.406       .  A
C13          H17   1.083       .  S
C14          C15   1.399       .  A
C14        C1157   1.485       .  S
C15          H18   1.084       .  S
C19          C20   1.416       .  A
C19          C24   1.411       .  A
C19        C1127   1.511       .  S
C20          C21   1.407       .  A
C20          H25   1.083       .  S
C21          C22   1.396       .  A
C21        C1147   1.483       .  S
C22          C23   1.394       .  A
C22          H26   1.084       .  S
C23          C24   1.407       .  A
C23        C1134   1.480       .  S
C24          H27   1.080       .  S
C28          C29   1.407       .  A
C28          C33   1.395       .  A
C28        C1104   1.480       .  S
C29          C30   1.411       .  A
C29          H34   1.079       .  S
C30          C31   1.416       .  A
C30        C1117   1.513       .  S
C31          C32   1.405       .  A
C31          H35   1.083       .  S
C32          C33   1.396       .  A
C32        C1094   1.481       .  S
C33          H36   1.084       .  S
C37          C38   1.397       .  A
C37          C42   1.403       .  A
C37        C1074   1.480       .  S
C38          C39   1.396       .  A
C38          H43   1.084       .  S
C39          C40   1.407       .  A
C39        C1084   1.479       .  S
C40          C41   1.410       .  A
C40          H44   1.081       .  S
C41          C42   1.411       .  A
C41        C1064   1.505       .  S
C42          H45   1.083       .  S
C46          C47   1.406       .  A
C46          C51   1.407       .  A
C46        C1044   1.494       .  S
C47          C48   1.402       .  A
C47          H52   1.084       .  S
C48          C49   1.399       .  A
C48        C1054   1.478       .  S
C49          C50   1.404       .  A
C49          H53   1.084       .  S
C50          C51   1.407       .  A
C50        C1034   1.491       .  S
C51          H54   1.083       .  S
O55         Cu63   1.994       .  S
O55          C65   1.276       .  A
O56         Cu63   1.994       .  S
O56          C66   1.276       .  A
O57         Cu63   1.993       .  S
O57          C67   1.276       .  A
O58         Cu63   1.996       .  S
O58          C68   1.276       .  A
O59         Cu64   2.019       .  S
O59          C68   1.279       .  A
O60         Cu64   2.022       .  S
O60          C67   1.279       .  A
O61         Cu64   2.025       .  S
O61          C66   1.279       .  A
O62         Cu64   2.028       .  S
O62          C65   1.280       .  A
Cu63        Cu64   2.374       .  S
C65        C1024   1.482       .  S
C66         C994   1.476       .  S
C67        C1014   1.477       .  S
C68        C1007   1.479       .  S
N69          N70   1.320       .  A
N69          C73   1.348       .  A
N69         Cu77   2.072       .  S
N70          C71   1.343       .  A
N70         Cu76   2.065       .  S
C71          C72   1.382       .  A
C71          H74   1.082       .  S
C72          C73   1.385       .  A
C72         C997   1.476       .  S
C73          H75   1.081       .  S
Cu76         N79   2.066       .  S
Cu77         N87   2.072       .  S
Cu78         N80   2.092       .  S
Cu78         N86   2.093       .  S
N79          N80   1.322       .  A
N79          C83   1.339   1_554  A
N80          C81   1.353   1_554  A
C81          C82   1.390       .  A
C81          H84   1.082       .  S
C82          C83   1.381       .  A
C82         C192   1.478       .  S
C83          H85   1.082       .  S
N86          N87   1.323       .  A
N86          C90   1.349       .  A
N87          C88   1.340       .  A
C88          C89   1.384       .  A
C88          H91   1.081       .  S
C89          C90   1.391       .  A
C89         C984   1.492       .  S
C90          H92   1.081       .  S
N93          N94   1.320       .  A
N93          C97   1.349       .  A
N93        Cu101   2.077       .  S
N94          C95   1.341       .  A
N94        Cu100   2.059       .  S
C95          C96   1.380       .  A
C95          H98   1.082       .  S
C96          C97   1.386       .  A
C96        C1017   1.476       .  S
C97          H99   1.081       .  S
Cu100       N103   2.060       .  S
Cu101       N111   2.078       .  S
Cu102       N104   2.083       .  S
Cu102       N110   2.084       .  S
N103        N104   1.322       .  A
N103        C107   1.339   1_554  A
N104        C105   1.350   1_554  A
C105        C106   1.387       .  A
C105        H108   1.082       .  S
C106        C107   1.380       .  A
C106        C216   1.472       .  S
C107        H109   1.082       .  S
N110        N111   1.324       .  A
N110        C114   1.348       .  A
N111        C112   1.341       .  A
C112        C113   1.384       .  A
C112        H115   1.082       .  S
C113        C114   1.387       .  A
C113       C1167   1.488       .  S
C114        H116   1.082       .  S
N117        N118   1.319       .  A
N117        C121   1.349       .  A
N117       Cu125   2.079       .  S
N118        C119   1.340       .  A
N118       Cu124   2.055       .  S
C119        C120   1.381       .  A
C119        H122   1.082       .  S
C120        C121   1.389       .  A
C120       C1004   1.482       .  S
C121        H123   1.082       .  S
Cu124       N127   2.056       .  S
Cu125       N135   2.081       .  S
Cu126       N128   2.079       .  S
Cu126       N134   2.081       .  S
N127        N128   1.321       .  A
N127        C131   1.338   1_554  A
N128        C129   1.350   1_554  A
C129        C130   1.386       .  A
C129        H132   1.082       .  S
C130        C131   1.379       .  A
C130        C240   1.470       .  S
C131        H133   1.082       .  S
N134        N135   1.324       .  A
N134        C138   1.348       .  A
N135        C136   1.341       .  A
C136        C137   1.384       .  A
C136        H139   1.082       .  S
C137        C138   1.385       .  A
C137       C1047   1.485       .  S
C138        H140   1.082       .  S
N141        N142   1.321       .  A
N141        C145   1.351       .  A
N141       Cu149   2.088       .  S
N142        C143   1.342       .  A
N142       Cu148   2.064       .  S
C143        C144   1.381       .  A
C143        H146   1.082       .  S
C144        C145   1.389       .  A
C144       C1027   1.483       .  S
C145        H147   1.082       .  S
Cu148       N151   2.064       .  S
Cu149       N159   2.091       .  S
Cu150       N152   2.073       .  S
Cu150       N158   2.074       .  S
N151        N152   1.321       .  A
N151        C155   1.339   1_554  A
N152        C153   1.350   1_554  A
C153        C154   1.386       .  A
C153        H156   1.082       .  S
C154        C155   1.382       .  A
C154        C264   1.472       .  S
C155        H157   1.082       .  S
N158        N159   1.325       .  A
N158        C162   1.346       .  A
N159        C160   1.345       .  A
C160        C161   1.385       .  A
C160        H163   1.082       .  S
C161        C162   1.380       .  A
C161        C974   1.480       .  S
C162        H164   1.082       .  S
O165       Cu173   2.019       .  S
O165        C175   1.279       .  A
O166       Cu173   2.016       .  S
O166        C176   1.279       .  A
O167       Cu173   2.019       .  S
O167        C177   1.278       .  A
O168       Cu173   2.022       .  S
O168        C178   1.279       .  A
O169       Cu174   1.997       .  S
O169        C178   1.277       .  A
O170       Cu174   2.000       .  S
O170        C177   1.277       .  A
O171       Cu174   1.988       .  S
O171        C176   1.275       .  A
O172       Cu174   1.987       .  S
O172        C175   1.275       .  A
Cu173      Cu174   2.376       .  S
C175        C934   1.474       .  S
C176        C964   1.477       .  S
C177        C944   1.475       .  S
C178        C954   1.476       .  S
N179        N180   1.318       .  A
N179        C183   1.346       .  A
N179       Cu187   2.060       .  S
N180        C181   1.340       .  A
N180       Cu186   2.056       .  S
C181        C182   1.383       .  A
C181        H184   1.082       .  S
C182        C183   1.386       .  A
C182        C937   1.479       .  S
C183        H185   1.081       .  S
Cu186       N189   2.057       .  S
Cu187       N197   2.061       .  S
Cu188       N190   2.103       .  S
Cu188       N196   2.104       .  S
N189        N190   1.322       .  A
N189        C193   1.337       .  A
N190        C191   1.355       .  A
C191        C192   1.392       .  A
C191        H194   1.082       .  S
C192        C193   1.379       .  A
C193        H195   1.082       .  S
N196        N197   1.324       .  A
N196        C200   1.350       .  A
N197        C198   1.340       .  A
C198        C199   1.381       .  A
C198        H201   1.081       .  S
C199        C200   1.393       .  A
C199       C1097   1.492       .  S
C200        H202   1.081       .  S
N203        N204   1.321       .  A
N203        C207   1.350       .  A
N203       Cu211   2.081       .  S
N204        C205   1.341       .  A
N204       Cu210   2.061       .  S
C205        C206   1.380       .  A
C205        H208   1.082       .  S
C206        C207   1.387       .  A
C206        C957   1.478       .  S
C207        H209   1.082       .  S
Cu210       N213   2.062       .  S
Cu211       N221   2.083       .  S
Cu212       N214   2.078       .  S
Cu212       N220   2.080       .  S
N213        N214   1.321       .  A
N213        C217   1.340       .  A
N214        C215   1.349       .  A
C215        C216   1.386       .  A
C215        H218   1.082       .  S
C216        C217   1.381       .  A
C217        H219   1.082       .  S
N220        N221   1.325       .  A
N220        C224   1.347       .  A
N221        C222   1.343       .  A
C222        C223   1.383       .  A
C222        H225   1.082       .  S
C223        C224   1.382       .  A
C223       C1067   1.480       .  S
C224        H226   1.082       .  S
N227        N228   1.321       .  A
N227        C231   1.349       .  A
N227       Cu235   2.082       .  S
N228        C229   1.341       .  A
N228       Cu234   2.055       .  S
C229        C230   1.378       .  A
C229        H232   1.082       .  S
C230        C231   1.386       .  A
C230        C947   1.475       .  S
C231        H233   1.081       .  S
Cu234       N237   2.055       .  S
Cu235       N245   2.085       .  S
Cu236       N238   2.077       .  S
Cu236       N244   2.079       .  S
N237        N238   1.321       .  A
N237        C241   1.338       .  A
N238        C239   1.349       .  A
C239        C240   1.386       .  A
C239        H242   1.082       .  S
C240        C241   1.380       .  A
C241        H243   1.082       .  S
N244        N245   1.325       .  A
N244        C248   1.346       .  A
N245        C246   1.344       .  A
C246        C247   1.383       .  A
C246        H249   1.082       .  S
C247        C248   1.382       .  A
C247       C1124   1.479       .  S
C248        H250   1.082       .  S
N251        N252   1.318       .  A
N251        C255   1.347       .  A
N251       Cu259   2.067       .  S
N252        C253   1.340       .  A
N252       Cu258   2.051       .  S
C253        C254   1.382       .  A
C253        H256   1.082       .  S
C254        C255   1.387       .  A
C254        C967   1.479       .  S
C255        H257   1.082       .  S
Cu258       N261   2.052       .  S
Cu259       N269   2.068       .  S
Cu260       N262   2.093       .  S
Cu260       N268   2.093       .  S
N261        N262   1.322       .  A
N261        C265   1.338       .  A
N262        C263   1.352       .  A
C263        C264   1.389       .  A
C263        H266   1.082       .  S
C264        C265   1.377       .  A
C265        H267   1.082       .  S
N268        N269   1.323       .  A
N268        C272   1.348       .  A
N269        C270   1.340       .  A
C270        C271   1.383       .  A
C270        H273   1.081       .  S
C271        C272   1.391       .  A
C271       C1207   1.491       .  S
C272        H274   1.081       .  S
O275       Cu283   1.988       .  S
O275        C285   1.275       .  A
O276       Cu283   1.984       .  S
O276        C286   1.275       .  A
O277       Cu283   2.008       .  S
O277        C287   1.277       .  A
O278       Cu283   2.005       .  S
O278        C288   1.277       .  A
O279       Cu284   2.016       .  S
O279        C288   1.277       .  A
O280       Cu284   2.020       .  S
O280        C287   1.278       .  A
O281       Cu284   2.029       .  S
O281        C286   1.280       .  A
O282       Cu284   2.034       .  S
O282        C285   1.281       .  A
Cu283      Cu284   2.372       .  S
C285        C894   1.487       .  S
C286        C927   1.484       .  S
C287        C907   1.475       .  S
C288        C914   1.473       .  S
N289        N290   1.321       .  A
N289        C293   1.350       .  A
N289       Cu297   2.085       .  S
N290        C291   1.341       .  A
N290       Cu296   2.062       .  S
C291        C292   1.381       .  A
C291        H294   1.082       .  S
C292        C293   1.388       .  A
C292        C897   1.481       .  S
C293        H295   1.082       .  S
Cu296       N299   2.063       .  S
Cu297       N307   2.087       .  S
Cu298       N300   2.076       .  S
Cu298       N306   2.077       .  S
N299        N300   1.321       .  A
N299        C303   1.340   1_545  A
N300        C301   1.349   1_545  A
C301        C302   1.386       .  A
C301        H304   1.082       .  S
C302        C303   1.381       .  A
C302        C412   1.472       .  S
C303        H305   1.082       .  S
N306        N307   1.324       .  A
N306        C310   1.347       .  A
N307        C308   1.342       .  A
C308        C309   1.385       .  A
C308        H311   1.082       .  S
C309        C310   1.384       .  A
C309        C884   1.486       .  S
C310        H312   1.082       .  S
N313        N314   1.319       .  A
N313        C317   1.349       .  A
N313       Cu321   2.080       .  S
N314        C315   1.340       .  A
N314       Cu320   2.048       .  S
C315        C316   1.380       .  A
C315        H318   1.082       .  S
C316        C317   1.389       .  A
C316        C917   1.479       .  S
C317        H319   1.082       .  S
Cu320       N323   2.048       .  S
Cu321       N331   2.080       .  S
Cu322       N324   2.082       .  S
Cu322       N330   2.084       .  S
N323        N324   1.321       .  A
N323        C327   1.336   1_545  A
N324        C325   1.351   1_545  A
C325        C326   1.388       .  A
C325        H328   1.082       .  S
C326        C327   1.378       .  A
C326        C436   1.469       .  S
C327        H329   1.081       .  S
N330        N331   1.324       .  A
N330        C334   1.347       .  A
N331        C332   1.341       .  A
C332        C333   1.385       .  A
C332        H335   1.081       .  S
C333        C334   1.388       .  A
C333       C1057   1.491       .  S
C334        H336   1.081       .  S
N337        N338   1.322       .  A
N337        C341   1.350       .  A
N337       Cu345   2.085       .  S
N338        C339   1.342       .  A
N338       Cu344   2.064       .  S
C339        C340   1.379       .  A
C339        H342   1.082       .  S
C340        C341   1.386       .  A
C340        C904   1.477       .  S
C341        H343   1.082       .  S
Cu344       N347   2.065       .  S
Cu345       N355   2.087       .  S
Cu346       N348   2.074       .  S
Cu346       N354   2.075       .  S
N347        N348   1.321       .  A
N347        C351   1.340   1_545  A
N348        C349   1.349   1_545  A
C349        C350   1.385       .  A
C349        H352   1.082       .  S
C350        C351   1.381       .  A
C350        C460   1.471       .  S
C351        H353   1.082       .  S
N354        N355   1.325       .  A
N354        C358   1.346       .  A
N355        C356   1.345       .  A
C356        C357   1.384       .  A
C356        H359   1.082       .  S
C357        C358   1.381       .  A
C357       C1114   1.478       .  S
C358        H360   1.082       .  S
N361        N362   1.317       .  A
N361        C365   1.346       .  A
N361       Cu369   2.062       .  S
N362        C363   1.340       .  A
N362       Cu368   2.056       .  S
C363        C364   1.384       .  A
C363        H366   1.082       .  S
C364        C365   1.387       .  A
C364        C924   1.481       .  S
C365        H367   1.082       .  S
Cu368       N371   2.057       .  S
Cu369       N379   2.064       .  S
Cu370       N372   2.093       .  S
Cu370       N378   2.094       .  S
N371        N372   1.323       .  A
N371        C375   1.338   1_545  A
N372        C373   1.352   1_545  A
C373        C374   1.389       .  A
C373        H376   1.082       .  S
C374        C375   1.378       .  A
C374        C484   1.472       .  S
C375        H377   1.082       .  S
N378        N379   1.323       .  A
N378        C382   1.348       .  A
N379        C380   1.340       .  A
C380        C381   1.381       .  A
C380        H383   1.082       .  S
C381        C382   1.391       .  A
C381       C1144   1.489       .  S
C382        H384   1.081       .  S
O385       Cu393   2.026       .  S
O385        C395   1.279       .  A
O386       Cu393   2.019       .  S
O386        C396   1.278       .  A
O387       Cu393   2.026       .  S
O387        C397   1.280       .  A
O388       Cu393   2.033       .  S
O388        C398   1.280       .  A
O389       Cu394   1.982       .  S
O389        C398   1.272       .  A
O390       Cu394   1.988       .  S
O390        C397   1.275       .  A
O391       Cu394   2.005       .  S
O391        C396   1.278       .  A
O392       Cu394   1.996       .  S
O392        C395   1.276       .  A
Cu393      Cu394   2.366       .  S
C395        C874   1.490       .  S
C396        C844   1.481       .  S
C397        C867   1.473       .  S
C398        C854   1.502       .  S
N399        N400   1.320       .  A
N399        C403   1.347       .  A
N399       Cu407   2.070       .  S
N400        C401   1.341       .  A
N400       Cu406   2.058       .  S
C401        C402   1.381       .  A
C401        H404   1.082       .  S
C402        C403   1.384       .  A
C402        C847   1.473       .  S
C403        H405   1.082       .  S
Cu406       N409   2.058       .  S
Cu407       N417   2.070       .  S
Cu408       N410   2.085       .  S
Cu408       N416   2.087       .  S
N409        N410   1.321       .  A
N409        C413   1.339       .  A
N410        C411   1.350       .  A
C411        C412   1.388       .  A
C411        H414   1.082       .  S
C412        C413   1.379       .  A
C413        H415   1.082       .  S
N416        N417   1.324       .  A
N416        C420   1.347       .  A
N417        C418   1.342       .  A
C418        C419   1.382       .  A
C418        H421   1.082       .  S
C419        C420   1.388       .  A
C419       C1154   1.486       .  S
C420        H422   1.082       .  S
N423        N424   1.319       .  A
N423        C427   1.348       .  A
N423       Cu431   2.073       .  S
N424        C425   1.341       .  A
N424       Cu430   2.056       .  S
C425        C426   1.381       .  A
C425        H428   1.082       .  S
C426        C427   1.386       .  A
C426        C864   1.477       .  S
C427        H429   1.082       .  S
Cu430       N433   2.056       .  S
Cu431       N441   2.075       .  S
Cu432       N434   2.076       .  S
Cu432       N440   2.078       .  S
N433        N434   1.321       .  A
N433        C437   1.337       .  A
N434        C435   1.350       .  A
C435        C436   1.386       .  A
C435        H438   1.082       .  S
C436        C437   1.379       .  A
C437        H439   1.081       .  S
N440        N441   1.324       .  A
N440        C444   1.346       .  A
N441        C442   1.341       .  A
C442        C443   1.383       .  A
C442        H445   1.082       .  S
C443        C444   1.385       .  A
C443        C834   1.483       .  S
C444        H446   1.082       .  S
N447        N448   1.320       .  A
N447        C451   1.350       .  A
N447       Cu455   2.077       .  S
N448        C449   1.337       .  A
N448       Cu454   2.052       .  S
C449        C450   1.380       .  A
C449        H452   1.082       .  S
C450        C451   1.389       .  A
C450        C857   1.480       .  S
C451        H453   1.082       .  S
Cu454       N457   2.053       .  S
Cu455       N465   2.079       .  S
Cu456       N458   2.080       .  S
Cu456       N464   2.084       .  S
N457        N458   1.320       .  A
N457        C461   1.339       .  A
N458        C459   1.350       .  A
C459        C460   1.388       .  A
C459        H462   1.082       .  S
C460        C461   1.379       .  A
C461        H463   1.082       .  S
N464        N465   1.325       .  A
N464        C468   1.346       .  A
N465        C466   1.343       .  A
C466        C467   1.384       .  A
C466        H469   1.082       .  S
C467        C468   1.386       .  A
C467       C1077   1.487       .  S
C468        H470   1.081       .  S
N471        N472   1.321       .  A
N471        C475   1.350       .  A
N471       Cu479   2.084       .  S
N472        C473   1.341       .  A
N472       Cu478   2.063       .  S
C473        C474   1.381       .  A
C473        H476   1.082       .  S
C474        C475   1.388       .  A
C474        C877   1.482       .  S
C475        H477   1.082       .  S
Cu478       N481   2.063       .  S
Cu479       N489   2.086       .  S
Cu480       N482   2.074       .  S
Cu480       N488   2.076       .  S
N481        N482   1.321       .  A
N481        C485   1.339       .  A
N482        C483   1.350       .  A
C483        C484   1.386       .  A
C483        H486   1.082       .  S
C484        C485   1.381       .  A
C485        H487   1.082       .  S
N488        N489   1.325       .  A
N488        C492   1.346       .  A
N489        C490   1.344       .  A
C490        C491   1.385       .  A
C490        H493   1.082       .  S
C491        C492   1.383       .  A
C491       C1197   1.484       .  S
C492        H494   1.082       .  S
C495        C496   1.403       .  A
C495        C500   1.396       .  A
C495        C837   1.476       .  S
C496        C497   1.408       .  A
C496        H501   1.081       .  S
C497        C498   1.414       .  A
C497        C977   1.509       .  S
C498        C499   1.407       .  A
C498        H502   1.081       .  S
C499        C500   1.400       .  A
C499        C824   1.492       .  S
C500        H503   1.084       .  S
O504       Cu512   2.035       .  S
O504        C514   1.282       .  A
O505       Cu512   2.037       .  S
O505        C515   1.281       .  A
O506       Cu512   2.024       .  S
O506        C516   1.278       .  A
O507       Cu512   2.019       .  S
O507        C517   1.278       .  A
O508       Cu513   1.999       .  S
O508        C517   1.277       .  A
O509       Cu513   2.012       .  S
O509        C516   1.278       .  A
O510       Cu513   1.988       .  S
O510        C515   1.276       .  A
O511       Cu513   1.985       .  S
O511        C514   1.273       .  A
Cu512      Cu513   2.370       .  S
C514        C817   1.492       .  S
C515        C784   1.484       .  S
C516        C807   1.477       .  S
C517        C794   1.475       .  S
N518        N519   1.319       .  A
N518        C522   1.348       .  A
N518       Cu526   2.069       .  S
N519        C520   1.342       .  A
N519       Cu525   2.065       .  S
C520        C521   1.384       .  A
C520        H523   1.082       .  S
C521        C522   1.387       .  A
C521        C787   1.483       .  S
C522        H524   1.082       .  S
Cu525       N528   2.065       .  S
Cu526       N536   2.071       .  S
Cu527       N529   2.088       .  S
Cu527       N535   2.089       .  S
N528        N529   1.323       .  A
N528        C532   1.339   1_455  A
N529        C530   1.351   1_455  A
C530        C531   1.388       .  A
C530        H533   1.082       .  S
C531        C532   1.380       .  A
C531        C641   1.474       .  S
C532        H534   1.082       .  S
N535        N536   1.324       .  A
N535        C539   1.349       .  A
N536        C537   1.341       .  A
C537        C538   1.380       .  A
C537        H540   1.082       .  S
C538        C539   1.387       .  A
C538        C774   1.483       .  S
C539        H541   1.082       .  S
N542        N543   1.321       .  A
N542        C546   1.349       .  A
N542       Cu550   2.079       .  S
N543        C544   1.342       .  A
N543       Cu549   2.062       .  S
C544        C545   1.379       .  A
C544        H547   1.082       .  S
C545        C546   1.385       .  A
C545        C804   1.474       .  S
C546        H548   1.082       .  S
Cu549       N552   2.062       .  S
Cu550       N560   2.081       .  S
Cu551       N553   2.080       .  S
Cu551       N559   2.081       .  S
N552        N553   1.322       .  A
N552        C556   1.339   1_455  A
N553        C554   1.350   1_455  A
C554        C555   1.386       .  A
C554        H557   1.082       .  S
C555        C556   1.380       .  A
C555        C665   1.472       .  S
C556        H558   1.082       .  S
N559        N560   1.325       .  A
N559        C563   1.347       .  A
N560        C561   1.343       .  A
C561        C562   1.382       .  A
C561        H564   1.082       .  S
C562        C563   1.383       .  A
C562       C1174   1.481       .  S
C563        H565   1.082       .  S
N566        N567   1.320       .  A
N566        C570   1.349       .  A
N566       Cu574   2.081       .  S
N567        C568   1.341       .  A
N567       Cu573   2.056       .  S
C568        C569   1.380       .  A
C568        H571   1.082       .  S
C569        C570   1.387       .  A
C569        C797   1.477       .  S
C570        H572   1.082       .  S
Cu573       N576   2.056       .  S
Cu574       N584   2.082       .  S
Cu575       N577   2.074       .  S
Cu575       N583   2.075       .  S
N576        N577   1.321       .  A
N576        C580   1.339   1_455  A
N577        C578   1.348   1_455  A
C578        C579   1.385       .  A
C578        H581   1.082       .  S
C579        C580   1.379       .  A
C579        C689   1.468       .  S
C580        H582   1.082       .  S
N583        N584   1.324       .  A
N583        C587   1.346       .  A
N584        C585   1.342       .  A
C585        C586   1.384       .  A
C585        H588   1.082       .  S
C586        C587   1.384       .  A
C586       C1107   1.484       .  S
C587        H589   1.082       .  S
N590        N591   1.321       .  A
N590        C594   1.350       .  A
N590       Cu598   2.082       .  S
N591        C592   1.340       .  A
N591       Cu597   2.061       .  S
C592        C593   1.381       .  A
C592        H595   1.082       .  S
C593        C594   1.388       .  A
C593        C814   1.481       .  S
C594        H596   1.082       .  S
Cu597       N600   2.061       .  S
Cu598       N608   2.083       .  S
Cu599       N601   2.073       .  S
Cu599       N607   2.075       .  S
N600        N601   1.321       .  A
N600        C604   1.340   1_455  A
N601        C602   1.349   1_455  A
C602        C603   1.385       .  A
C602        H605   1.082       .  S
C603        C604   1.381       .  A
C603        C713   1.470       .  S
C604        H606   1.082       .  S
N607        N608   1.324       .  A
N607        C611   1.346       .  A
N608        C609   1.342       .  A
C609        C610   1.385       .  A
C609        H612   1.082       .  S
C610        C611   1.384       .  A
C610       C1087   1.485       .  S
C611        H613   1.082       .  S
O614       Cu622   1.991       .  S
O614        C624   1.273       .  A
O615       Cu622   1.991       .  S
O615        C625   1.275       .  A
O616       Cu622   1.994       .  S
O616        C626   1.276       .  A
O617       Cu622   1.988       .  S
O617        C627   1.275       .  A
O618       Cu623   2.028       .  S
O618        C627   1.280       .  A
O619       Cu623   2.022       .  S
O619        C626   1.279       .  A
O620       Cu623   2.026       .  S
O620        C625   1.279       .  A
O621       Cu623   2.025       .  S
O621        C624   1.279       .  A
Cu622      Cu623   2.365       .  S
C624        C767   1.506       .  S
C625        C734   1.471       .  S
C626        C754   1.485       .  S
C627        C747   1.485       .  S
N628        N629   1.320       .  A
N628        C632   1.347       .  A
N628       Cu636   2.069       .  S
N629        C630   1.342       .  A
N629       Cu635   2.063       .  S
C630        C631   1.381       .  A
C630        H633   1.082       .  S
C631        C632   1.384       .  A
C631        C737   1.475       .  S
C632        H634   1.082       .  S
Cu635       N638   2.064       .  S
Cu636       N646   2.071       .  S
Cu637       N639   2.087       .  S
Cu637       N645   2.088       .  S
N638        N639   1.322       .  A
N638        C642   1.339       .  A
N639        C640   1.351       .  A
C640        C641   1.388       .  A
C640        H643   1.082       .  S
C641        C642   1.380       .  A
C642        H644   1.082       .  S
N645        N646   1.324       .  A
N645        C649   1.348       .  A
N646        C647   1.341       .  A
C647        C648   1.381       .  A
C647        H650   1.082       .  S
C648        C649   1.386       .  A
C648       C1037   1.482       .  S
C649        H651   1.082       .  S
N652        N653   1.319       .  A
N652        C656   1.346       .  A
N652       Cu660   2.065       .  S
N653        C654   1.341       .  A
N653       Cu659   2.060       .  S
C654        C655   1.382       .  A
C654        H657   1.082       .  S
C655        C656   1.385       .  A
C655        C757   1.477       .  S
C656        H658   1.082       .  S
Cu659       N662   2.060       .  S
Cu660       N670   2.066       .  S
Cu661       N663   2.083       .  S
Cu661       N669   2.085       .  S
N662        N663   1.322       .  A
N662        C666   1.339       .  A
N663        C664   1.350       .  A
C664        C665   1.387       .  A
C664        H667   1.082       .  S
C665        C666   1.380       .  A
C666        H668   1.082       .  S
N669        N670   1.324       .  A
N669        C673   1.347       .  A
N670        C671   1.342       .  A
C671        C672   1.379       .  A
C671        H674   1.082       .  S
C672        C673   1.385       .  A
C672        C827   1.479       .  S
C673        H675   1.082       .  S
N676        N677   1.320       .  A
N676        C680   1.349       .  A
N676       Cu684   2.079       .  S
N677        C678   1.340       .  A
N677       Cu683   2.056       .  S
C678        C679   1.380       .  A
C678        H681   1.082       .  S
C679        C680   1.387       .  A
C679        C744   1.477       .  S
C680        H682   1.082       .  S
Cu683       N686   2.057       .  S
Cu684       N694   2.081       .  S
Cu685       N687   2.072       .  S
Cu685       N693   2.074       .  S
N686        N687   1.321       .  A
N686        C690   1.339       .  A
N687        C688   1.348       .  A
C688        C689   1.385       .  A
C688        H691   1.082       .  S
C689        C690   1.379       .  A
C690        H692   1.082       .  S
N693        N694   1.324       .  A
N693        C697   1.346       .  A
N694        C695   1.342       .  A
C695        C696   1.384       .  A
C695        H698   1.082       .  S
C696        C697   1.384       .  A
C696       C1137   1.483       .  S
C697        H699   1.082       .  S
N700        N701   1.319       .  A
N700        C704   1.348       .  A
N700       Cu708   2.070       .  S
N701        C702   1.339       .  A
N701       Cu707   2.058       .  S
C702        C703   1.384       .  A
C702        H705   1.082       .  S
C703        C704   1.389       .  A
C703        C764   1.486       .  S
C704        H706   1.082       .  S
Cu707       N710   2.060       .  S
Cu708       N718   2.074       .  S
Cu709       N711   2.079       .  S
Cu709       N717   2.080       .  S
N710        N711   1.322       .  A
N710        C714   1.340       .  A
N711        C712   1.349       .  A
C712        C713   1.386       .  A
C712        H715   1.082       .  S
C713        C714   1.380       .  A
C714        H716   1.082       .  S
N717        N718   1.324       .  A
N717        C721   1.347       .  A
N718        C719   1.342       .  A
C719        C720   1.383       .  A
C719        H722   1.082       .  S
C720        C721   1.386       .  A
C720       C1187   1.484       .  S
C721        H723   1.082       .  S
C724        C725   1.405       .  A
C724        C729   1.407       .  A
C724        C887   1.494       .  S
C725        C726   1.407       .  A
C725        H730   1.083       .  S
C726        C727   1.406       .  A
C726        C777   1.494       .  S
C727        C728   1.401       .  A
C727        H731   1.084       .  S
C728        C729   1.405       .  A
C728        C987   1.483       .  S
C729        H732   1.084       .  S
C733        C734   1.408       .  A
C733        C738   1.409       .  A
C733       Br740   1.928       .  S
C734        C735   1.408       .  A
C735        C736   1.405       .  A
C735       Br742   1.929       .  S
C736        C737   1.409       .  A
C736       Br741   1.930       .  S
C737        C738   1.410       .  A
C738       Br739   1.929       .  S
C743        C744   1.408       .  A
C743        C748   1.411       .  A
C743       Br750   1.930       .  S
C744        C745   1.408       .  A
C745        C746   1.405       .  A
C745       Br752   1.934       .  S
C746        C747   1.416       .  A
C746       Br751   1.935       .  S
C747        C748   1.416       .  A
C748       Br749   1.931       .  S
C753        C754   1.415       .  A
C753        C758   1.412       .  A
C753       Br760   1.931       .  S
C754        C755   1.414       .  A
C755        C756   1.403       .  A
C755       Br762   1.928       .  S
C756        C757   1.408       .  A
C756       Br761   1.936       .  S
C757        C758   1.410       .  A
C758       Br759   1.930       .  S
C763        C764   1.409       .  A
C763        C768   1.414       .  A
C763       Br770   1.934       .  S
C764        C765   1.407       .  A
C765        C766   1.405       .  A
C765       Br772   1.940       .  S
C766        C767   1.428       .  A
C766       Br771   1.939       .  S
C767        C768   1.427       .  A
C768       Br769   1.936       .  S
C773        C774   1.410       .  A
C773        C778   1.410       .  A
C773       Br780   1.931       .  S
C774        C775   1.410       .  A
C775        C776   1.406       .  A
C775       Br782   1.934       .  S
C776        C777   1.417       .  A
C776       Br781   1.935       .  S
C777        C778   1.417       .  A
C778       Br779   1.932       .  S
C783        C784   1.411       .  A
C783        C788   1.413       .  A
C783       Br790   1.927       .  S
C784        C785   1.413       .  A
C785        C786   1.405       .  A
C785       Br792   1.935       .  S
C786        C787   1.410       .  A
C786       Br791   1.933       .  S
C787        C788   1.414       .  A
C788       Br789   1.930       .  S
C793        C794   1.409       .  A
C793        C798   1.405       .  A
C793       Br800   1.932       .  S
C794        C795   1.411       .  A
C795        C796   1.411       .  A
C795       Br802   1.930       .  S
C796        C797   1.410       .  A
C796       Br801   1.929       .  S
C797        C798   1.410       .  A
C798       Br799   1.931       .  S
C803        C804   1.407       .  A
C803        C808   1.407       .  A
C803       Br810   1.929       .  S
C804        C805   1.408       .  A
C805        C806   1.409       .  A
C805       Br812   1.929       .  S
C806        C807   1.408       .  A
C806       Br811   1.922       .  S
C807        C808   1.409       .  A
C808       Br809   1.925       .  S
C813        C814   1.408       .  A
C813        C818   1.406       .  A
C813       Br820   1.936       .  S
C814        C815   1.408       .  A
C815        C816   1.413       .  A
C815       Br822   1.931       .  S
C816        C817   1.419       .  A
C816       Br821   1.933       .  S
C817        C818   1.421       .  A
C818       Br819   1.938       .  S
C823        C824   1.418       .  A
C823        C828   1.406       .  A
C823       Br830   1.932       .  S
C824        C825   1.415       .  A
C825        C826   1.408       .  A
C825       Br832   1.933       .  S
C826        C827   1.411       .  A
C826       Br831   1.932       .  S
C827        C828   1.408       .  A
C828       Br829   1.933       .  S
C833        C834   1.416       .  A
C833        C838   1.410       .  A
C833       Br840   1.930       .  S
C834        C835   1.414       .  A
C835        C836   1.401       .  A
C835       Br842   1.933       .  S
C836        C837   1.407       .  A
C836       Br841   1.931       .  S
C837        C838   1.407       .  A
C838       Br839   1.928       .  S
C843        C844   1.410       .  A
C843        C848   1.403       .  A
C843       Br850   1.923       .  S
C844        C845   1.414       .  A
C845        C846   1.411       .  A
C845       Br852   1.929       .  S
C846        C847   1.409       .  A
C846       Br851   1.929       .  S
C847        C848   1.406       .  A
C848       Br849   1.933       .  S
C853        C854   1.425       .  A
C853        C858   1.414       .  A
C853       Br860   1.933       .  S
C854        C855   1.427       .  A
C855        C856   1.403       .  A
C855       Br862   1.940       .  S
C856        C857   1.405       .  A
C856       Br861   1.939       .  S
C857        C858   1.407       .  A
C858       Br859   1.932       .  S
C863        C864   1.410       .  A
C863        C868   1.405       .  A
C863       Br870   1.932       .  S
C864        C865   1.411       .  A
C865        C866   1.410       .  A
C865       Br872   1.929       .  S
C866        C867   1.409       .  A
C866       Br871   1.930       .  S
C867        C868   1.409       .  A
C868       Br869   1.931       .  S
C873        C874   1.416       .  A
C873        C878   1.407       .  A
C873       Br880   1.936       .  S
C874        C875   1.417       .  A
C875        C876   1.413       .  A
C875       Br882   1.931       .  S
C876        C877   1.409       .  A
C876       Br881   1.931       .  S
C877        C878   1.409       .  A
C878       Br879   1.933       .  S
C883        C884   1.413       .  A
C883        C888   1.413       .  A
C883       Br890   1.929       .  S
C884        C885   1.409       .  A
C885        C886   1.402       .  A
C885       Br892   1.937       .  S
C886        C887   1.415       .  A
C886       Br891   1.923       .  S
C887        C888   1.414       .  A
C888       Br889   1.931       .  S
C893        C894   1.416       .  A
C893        C898   1.413       .  A
C893       Br900   1.931       .  S
C894        C895   1.417       .  A
C895        C896   1.405       .  A
C895       Br902   1.936       .  S
C896        C897   1.408       .  A
C896       Br901   1.934       .  S
C897        C898   1.410       .  A
C898       Br899   1.929       .  S
C903        C904   1.409       .  A
C903        C908   1.407       .  A
C903       Br910   1.929       .  S
C904        C905   1.409       .  A
C905        C906   1.409       .  A
C905       Br912   1.928       .  S
C906        C907   1.409       .  A
C906       Br911   1.928       .  S
C907        C908   1.409       .  A
C908       Br909   1.928       .  S
C913        C914   1.406       .  A
C913        C918   1.406       .  A
C913       Br920   1.930       .  S
C914        C915   1.410       .  A
C915        C916   1.409       .  A
C915       Br922   1.929       .  S
C916        C917   1.411       .  A
C916       Br921   1.930       .  S
C917        C918   1.412       .  A
C918       Br919   1.931       .  S
C923        C924   1.410       .  A
C923        C928   1.404       .  A
C923       Br930   1.935       .  S
C924        C925   1.412       .  A
C925        C926   1.411       .  A
C925       Br932   1.931       .  S
C926        C927   1.414       .  A
C926       Br931   1.931       .  S
C927        C928   1.416       .  A
C928       Br929   1.937       .  S
C933        C934   1.410       .  A
C933        C938   1.409       .  A
C933       Br940   1.931       .  S
C934        C935   1.410       .  A
C935        C936   1.403       .  A
C935       Br942   1.933       .  S
C936        C937   1.411       .  A
C936       Br941   1.933       .  S
C937        C938   1.413       .  A
C938       Br939   1.930       .  S
C943        C944   1.409       .  A
C943        C948   1.405       .  A
C943       Br950   1.930       .  S
C944        C945   1.411       .  A
C945        C946   1.409       .  A
C945       Br952   1.930       .  S
C946        C947   1.409       .  A
C946       Br951   1.929       .  S
C947        C948   1.409       .  A
C948       Br949   1.931       .  S
C953        C954   1.410       .  A
C953        C958   1.405       .  A
C953       Br960   1.932       .  S
C954        C955   1.411       .  A
C955        C956   1.411       .  A
C955       Br962   1.930       .  S
C956        C957   1.410       .  A
C956       Br961   1.929       .  S
C957        C958   1.409       .  A
C958       Br959   1.931       .  S
C963        C964   1.413       .  A
C963        C968   1.409       .  A
C963       Br970   1.932       .  S
C964        C965   1.412       .  A
C965        C966   1.404       .  A
C965       Br972   1.935       .  S
C966        C967   1.411       .  A
C966       Br971   1.934       .  S
C967        C968   1.411       .  A
C968       Br969   1.931       .  S
C973        C974   1.404       .  A
C973        C978   1.408       .  A
C973       Br980   1.938       .  S
C974        C975   1.406       .  A
C975        C976   1.410       .  A
C975       Br982   1.930       .  S
C976        C977   1.420       .  A
C976       Br981   1.933       .  S
C977        C978   1.429       .  A
C978       Br979   1.930       .  S
C983        C984   1.418       .  A
C983        C988   1.412       .  A
C983       Br990   1.930       .  S
C984        C985   1.417       .  A
C985        C986   1.403       .  A
C985       Br992   1.934       .  S
C986        C987   1.405       .  A
C986       Br991   1.925       .  S
C987        C988   1.408       .  A
C988       Br989   1.929       .  S
C993        C994   1.411       .  A
C993        C998   1.405       .  A
C993      Br1000   1.931       .  S
C994        C995   1.411       .  A
C995        C996   1.410       .  A
C995      Br1002   1.930       .  S
C996        C997   1.409       .  A
C996      Br1001   1.929       .  S
C997        C998   1.408       .  A
C998       Br999   1.931       .  S
C1003      C1004   1.412       .  A
C1003      C1008   1.411       .  A
C1003     Br1010   1.930       .  S
C1004      C1005   1.412       .  A
C1005      C1006   1.406       .  A
C1005     Br1012   1.933       .  S
C1006      C1007   1.411       .  A
C1006     Br1011   1.934       .  S
C1007      C1008   1.413       .  A
C1008     Br1009   1.932       .  S
C1013      C1014   1.412       .  A
C1013      C1018   1.411       .  A
C1013     Br1020   1.930       .  S
C1014      C1015   1.411       .  A
C1015      C1016   1.404       .  A
C1015     Br1022   1.933       .  S
C1016      C1017   1.408       .  A
C1016     Br1021   1.931       .  S
C1017      C1018   1.409       .  A
C1018     Br1019   1.929       .  S
C1023      C1024   1.413       .  A
C1023      C1028   1.412       .  A
C1023     Br1030   1.930       .  S
C1024      C1025   1.412       .  A
C1025      C1026   1.406       .  A
C1025     Br1032   1.934       .  S
C1026      C1027   1.411       .  A
C1026     Br1031   1.932       .  S
C1027      C1028   1.411       .  A
C1028     Br1029   1.929       .  S
C1033      C1034   1.416       .  A
C1033      C1038   1.406       .  A
C1033     Br1040   1.935       .  S
C1034      C1035   1.416       .  A
C1035      C1036   1.409       .  A
C1035     Br1042   1.933       .  S
C1036      C1037   1.410       .  A
C1036     Br1041   1.931       .  S
C1037      C1038   1.411       .  A
C1038     Br1039   1.933       .  S
C1043      C1044   1.416       .  A
C1043      C1048   1.403       .  A
C1043     Br1050   1.926       .  S
C1044      C1045   1.415       .  A
C1045      C1046   1.413       .  A
C1045     Br1052   1.931       .  S
C1046      C1047   1.414       .  A
C1046     Br1051   1.930       .  S
C1047      C1048   1.409       .  A
C1048     Br1049   1.937       .  S
C1053      C1054   1.404       .  A
C1053      C1058   1.402       .  A
C1053     Br1060   1.928       .  S
C1054      C1055   1.406       .  A
C1055      C1056   1.411       .  A
C1055     Br1062   1.930       .  S
C1056      C1057   1.419       .  A
C1056     Br1061   1.930       .  S
C1057      C1058   1.417       .  A
C1058     Br1059   1.934       .  S
C1063      C1064   1.420       .  A
C1063      C1068   1.410       .  A
C1063     Br1070   1.934       .  S
C1064      C1065   1.424       .  A
C1065      C1066   1.407       .  A
C1065     Br1072   1.926       .  S
C1066      C1067   1.406       .  A
C1066     Br1071   1.938       .  S
C1067      C1068   1.407       .  A
C1068     Br1069   1.930       .  S
C1073      C1074   1.409       .  A
C1073      C1078   1.407       .  A
C1073     Br1080   1.933       .  S
C1074      C1075   1.407       .  A
C1075      C1076   1.407       .  A
C1075     Br1082   1.932       .  S
C1076      C1077   1.417       .  A
C1076     Br1081   1.932       .  S
C1077      C1078   1.415       .  A
C1078     Br1079   1.932       .  S
C1083      C1084   1.407       .  A
C1083      C1088   1.401       .  A
C1083     Br1090   1.929       .  S
C1084      C1085   1.408       .  A
C1085      C1086   1.412       .  A
C1085     Br1092   1.929       .  S
C1086      C1087   1.417       .  A
C1086     Br1091   1.930       .  S
C1087      C1088   1.413       .  A
C1088     Br1089   1.933       .  S
C1093      C1094   1.406       .  A
C1093      C1098   1.408       .  A
C1093     Br1100   1.933       .  S
C1094      C1095   1.408       .  A
C1095      C1096   1.409       .  A
C1095     Br1102   1.930       .  S
C1096      C1097   1.416       .  A
C1096     Br1101   1.931       .  S
C1097      C1098   1.420       .  A
C1098     Br1099   1.933       .  S
C1103      C1104   1.409       .  A
C1103      C1108   1.412       .  A
C1103     Br1110   1.929       .  S
C1104      C1105   1.409       .  A
C1105      C1106   1.400       .  A
C1105     Br1112   1.930       .  S
C1106      C1107   1.411       .  A
C1106     Br1111   1.934       .  S
C1107      C1108   1.416       .  A
C1108     Br1109   1.929       .  S
C1113      C1114   1.405       .  A
C1113      C1118   1.410       .  A
C1113     Br1120   1.930       .  S
C1114      C1115   1.403       .  A
C1115      C1116   1.410       .  A
C1115     Br1122   1.939       .  S
C1116      C1117   1.430       .  A
C1116     Br1121   1.928       .  S
C1117      C1118   1.422       .  A
C1118     Br1119   1.932       .  S
C1123      C1124   1.405       .  A
C1123      C1128   1.409       .  A
C1123     Br1130   1.931       .  S
C1124      C1125   1.405       .  A
C1125      C1126   1.409       .  A
C1125     Br1132   1.938       .  S
C1126      C1127   1.428       .  A
C1126     Br1131   1.927       .  S
C1127      C1128   1.421       .  A
C1128     Br1129   1.929       .  S
C1133      C1134   1.409       .  A
C1133      C1138   1.412       .  A
C1133     Br1140   1.929       .  S
C1134      C1135   1.409       .  A
C1135      C1136   1.399       .  A
C1135     Br1142   1.930       .  S
C1136      C1137   1.411       .  A
C1136     Br1141   1.933       .  S
C1137      C1138   1.416       .  A
C1138     Br1139   1.929       .  S
C1143      C1144   1.416       .  A
C1143      C1148   1.409       .  A
C1143     Br1150   1.931       .  S
C1144      C1145   1.418       .  A
C1145      C1146   1.406       .  A
C1145     Br1152   1.934       .  S
C1146      C1147   1.409       .  A
C1146     Br1151   1.933       .  S
C1147      C1148   1.409       .  A
C1148     Br1149   1.928       .  S
C1153      C1154   1.413       .  A
C1153      C1158   1.408       .  A
C1153     Br1160   1.932       .  S
C1154      C1155   1.416       .  A
C1155      C1156   1.407       .  A
C1155     Br1162   1.933       .  S
C1156      C1157   1.410       .  A
C1156     Br1161   1.933       .  S
C1157      C1158   1.410       .  A
C1158     Br1159   1.927       .  S
C1163      C1164   1.409       .  A
C1163      C1168   1.414       .  A
C1163     Br1170   1.929       .  S
C1164      C1165   1.407       .  A
C1165      C1166   1.400       .  A
C1165     Br1172   1.928       .  S
C1166      C1167   1.413       .  A
C1166     Br1171   1.934       .  S
C1167      C1168   1.417       .  A
C1168     Br1169   1.929       .  S
C1173      C1174   1.406       .  A
C1173      C1178   1.410       .  A
C1173     Br1180   1.931       .  S
C1174      C1175   1.406       .  A
C1175      C1176   1.409       .  A
C1175     Br1182   1.937       .  S
C1176      C1177   1.423       .  A
C1176     Br1181   1.924       .  S
C1177      C1178   1.419       .  A
C1178     Br1179   1.928       .  S
C1183      C1184   1.416       .  A
C1183      C1188   1.409       .  A
C1183     Br1190   1.934       .  S
C1184      C1185   1.417       .  A
C1185      C1186   1.405       .  A
C1185     Br1192   1.936       .  S
C1186      C1187   1.411       .  A
C1186     Br1191   1.934       .  S
C1187      C1188   1.413       .  A
C1188     Br1189   1.932       .  S
C1193      C1194   1.414       .  A
C1193      C1198   1.410       .  A
C1193     Br1200   1.933       .  S
C1194      C1195   1.417       .  A
C1195      C1196   1.405       .  A
C1195     Br1202   1.936       .  S
C1196      C1197   1.411       .  A
C1196     Br1201   1.934       .  S
C1197      C1198   1.413       .  A
C1198     Br1199   1.931       .  S
C1203      C1204   1.410       .  A
C1203      C1208   1.411       .  A
C1203     Br1210   1.931       .  S
C1204      C1205   1.410       .  A
C1205      C1206   1.405       .  A
C1205     Br1212   1.936       .  S
C1206      C1207   1.417       .  A
C1206     Br1211   1.935       .  S
C1207      C1208   1.417       .  A
C1208     Br1209   1.931       .  S
