geometry optimzed in LAMMPS
_audit_creation_date              2020-12-01 
_audit_creation_method            'lammps2cif' 
_symmetry_space_group_name_H-M    'P1' 
_symmetry_Int_Tables_number       1 
_symmetry_cell_setting            triclinic 
loop_ 
_symmetry_equiv_pos_as_xyz 
  x,y,z 
_cell_length_a                    53.03058487 
_cell_length_b                    53.07001455813582 
_cell_length_c                    74.18973282493923 
_cell_angle_alpha                 90.26503656749541 
_cell_angle_beta                  89.89444174380995 
_cell_angle_gamma                 119.66902209740114 
loop_ 
_atom_site_label 
_atom_site_type_symbol 
_atom_site_fract_x 
_atom_site_fract_y 
_atom_site_fract_z 
_atom_site_charge 
C1          C  0.04898135  0.19063107  0.09151839     0.04400
C2          C  0.02199905  0.18950121  0.09169683    -0.11800
C3          C  0.99856116  0.16773651  0.08206418     0.01900
C4          C  0.00218871  0.14724225  0.07218058    -0.10300
C5          C  0.02912335  0.14838117  0.07193111     0.04300
C6          C  0.05251379  0.17005453  0.08160101    -0.09700
H7          H  0.01916017  0.20526861  0.09947208     0.09900
H8          H  0.48406612  0.13040233  0.06471689     0.07500
H9          H  0.07326647  0.17073345  0.08155922     0.07300
C10         C  0.38536949  0.35079536  0.07035770     0.04400
C11         C  0.38599426  0.32467654  0.07054903    -0.11800
C12         C  0.36570238  0.30122438  0.08076719     0.01900
C13         C  0.34479844  0.30383413  0.09081160    -0.10300
C14         C  0.34368423  0.32964873  0.09061658     0.04300
C15         C  0.36409838  0.35321087  0.08035069    -0.09700
H16         H  0.40229951  0.32266267  0.06284887     0.09900
H17         H  0.32935040  0.28567865  0.09884735     0.07500
H18         H  0.36352135  0.37332809  0.08020089     0.07300
C19         C  0.20112400  0.48226670  0.09630470     0.04400
C20         C  0.22562069  0.00970771  0.09746224    -0.11800
C21         C  0.22777077  0.03258472  0.08705015     0.01900
C22         C  0.20387724  0.02887088  0.07696918    -0.10300
C23         C  0.17863556  0.50159625  0.07618663     0.04300
C24         C  0.17702430  0.47857659  0.08632463    -0.09700
H25         H  0.24421402  0.01254725  0.10516157     0.09900
H26         H  0.20567660  0.04658670  0.06881075     0.07500
H27         H  0.15710324  0.45787292  0.08644996     0.07300
C28         C  0.33688528  0.14010291  0.08420226     0.81400
N29         N  0.36216572  0.13947063  0.08369447    -0.76900
C30         C  0.38793837  0.16460083  0.08315105     0.83900
N31         N  0.38824956  0.19032889  0.08300307    -0.76800
C32         C  0.36306174  0.19108486  0.08338678     0.84000
N33         N  0.33737652  0.16591062  0.08402928    -0.78500
C34         C  0.36404400  0.02205655  0.90804201     0.04400
C35         C  0.33849348  0.49622231  0.90876091    -0.11800
C36         C  0.33606753  0.47324699  0.91925338     0.01900
C37         C  0.36011411  0.47640522  0.92889433    -0.10300
C38         C  0.38576128  0.00227942  0.92851497     0.04300
C39         C  0.38809482  0.02522125  0.91789703    -0.09700
H40         H  0.31987634  0.49366311  0.90120835     0.09900
H41         H  0.35817098  0.45858939  0.93700962     0.07500
H42         H  0.40853449  0.04536782  0.91724300     0.07300
C43         C  0.17895234  0.15211386  0.92761938     0.04400
C44         C  0.18092341  0.17949597  0.92832215    -0.11800
C45         C  0.20188586  0.20273809  0.91822583     0.01900
C46         C  0.22145839  0.19869406  0.90755126    -0.10300
C47         C  0.22018352  0.17162743  0.90682759     0.04300
C48         C  0.19863346  0.14827903  0.91672300    -0.09700
H49         H  0.16609732  0.18277112  0.93678678     0.09900
H50         H  0.23793766  0.21674652  0.89993466     0.07500
H51         H  0.19751147  0.12734586  0.91618812     0.07300
C52         C  0.22822574  0.36366359  0.92215016     0.81400
N53         N  0.22833559  0.33810414  0.92228549    -0.76900
C54         C  0.20300038  0.31254903  0.92164349     0.83900
N55         N  0.17742082  0.31254927  0.92084397    -0.76800
C56         C  0.17704954  0.33797168  0.92087879     0.84000
N57         N  0.20251913  0.36346016  0.92144980    -0.78500
C58         C  0.01825548  0.31751559  0.90486458     0.04400
C59         C  0.04455205  0.31717785  0.90562836    -0.11800
C60         C  0.06733382  0.33704669  0.91653653     0.01900
C61         C  0.06376979  0.35716626  0.92687218    -0.10300
C62         C  0.03803438  0.35855627  0.92588751     0.04300
C63         C  0.01529393  0.33863398  0.91474507    -0.09700
H64         H  0.04717064  0.30125787  0.89787531     0.09900
H65         H  0.08126403  0.37198172  0.93562317     0.07500
H66         H  0.49525340  0.33931144  0.91390637     0.07300
Zn67       Zn  0.03432221  0.00367278  0.97485277     1.49700
Zn68       Zn  0.06901049  0.03636641  0.01020484     1.49400
Zn69       Zn  0.49877287  0.00295847  0.00998833     1.49100
Zn70       Zn  0.03230968  0.46652608  0.00952689     1.49500
O71         O  0.03353206  0.00242449  0.00123625    -1.82900
O72         O  0.06982563  0.03913503  0.96533423    -0.73500
O73         O  0.05867040  0.06177934  0.02507141    -0.73300
O74         O  0.47515776  0.00500690  0.98925401    -0.72900
O75         O  0.09502239  0.06152414  0.98985051    -0.73500
O76         O  0.99968644  0.00496425  0.96499367    -0.73100
O77         O  0.01029673  0.03797627  0.02572095    -0.73700
O78         O  0.49606942  0.44191650  0.02401559    -0.73100
O79         O  0.09166286  0.02389158  0.02623170    -0.73900
O80         O  0.47276109  0.46707818  0.02424703    -0.73300
O81         O  0.06637690  0.47545275  0.02565892    -0.73700
O82         O  0.03236541  0.44221678  0.98844482    -0.73600
O83         O  0.03468151  0.46833220  0.96447662    -0.73400
C84         C  0.09195608  0.06006261  0.97276751     0.78400
C85         C  0.03468770  0.05948686  0.03014298     0.78900
C86         C  0.47813812  0.00546579  0.97219501     0.77800
C87         C  0.47457634  0.44487968  0.02866679     0.78200
C88         C  0.08818356  0.49895119  0.03106707     0.79300
C89         C  0.03345476  0.44584919  0.97143330     0.78400
C90         C  0.36916117  0.31733428  0.76044175     0.04400
C91         C  0.39553945  0.34353669  0.76140138    -0.11800
C92         C  0.39961862  0.36762174  0.75142703     0.01900
C93         C  0.37717439  0.36546020  0.74039309    -0.10300
C94         C  0.35072693  0.33928467  0.73926211     0.04300
C95         C  0.34679016  0.31525900  0.74934373    -0.09700
H96         H  0.41287607  0.34514949  0.76987462     0.09900
H97         H  0.38028790  0.38401962  0.73267974     0.07500
H98         H  0.32633501  0.29494688  0.74853757     0.07300
C99         C  0.21911189  0.02057328  0.76118244     0.04400
C100        C  0.19262728  0.02039735  0.76226854    -0.11800
C101        C  0.16803565  0.99901686  0.75333368     0.01900
C102        C  0.17012494  0.47746595  0.74372021    -0.10300
C103        C  0.19651060  0.47744571  0.74236677     0.04300
C104        C  0.22083690  0.99902091  0.75103987    -0.09700
H105        H  0.19118045  0.03700735  0.77002196     0.09900
H106        H  0.15112416  0.46112651  0.73664784     0.07500
H107        H  0.24127715  0.99913747  0.75007571     0.07300
C108        C  0.05713821  0.18696555  0.74072540     0.04400
C109        C  0.05732502  0.16061082  0.74135881    -0.11800
C110        C  0.03734244  0.13780533  0.75212547     0.01900
C111        C  0.01689264  0.14123918  0.76220435    -0.10300
C112        C  0.01622180  0.16729593  0.76156143     0.04300
C113        C  0.03646543  0.19022325  0.75086001    -0.09700
H114        H  0.07305046  0.15786674  0.73349111     0.09900
H115        H  0.50125791  0.12348538  0.77041387     0.07500
H116        H  0.03609204  0.21043362  0.75039184     0.07300
C117        C  0.00919310  0.47601558  0.75492198     0.81400
N118        N  0.03481184  0.47600462  0.75551861    -0.76900
C119        C  0.06006320  0.00140282  0.75519103     0.83900
N120        N  0.06005453  0.02695889  0.75490759    -0.76800
C121        C  0.03464158  0.02731185  0.75454978     0.84000
N122        N  0.00907471  0.00184906  0.75430327    -0.78500
Zn123      Zn  0.40178122  0.20431259  0.82381788     1.49700
Zn124      Zn  0.36807453  0.17002747  0.85938677     1.49400
Zn125      Zn  0.33171349  0.16810700  0.82437200     1.49100
Zn126      Zn  0.36857608  0.13475346  0.82408612     1.49500
O127        O  0.36749516  0.16929549  0.83289444    -1.82900
O128        O  0.42666220  0.22991526  0.84431008    -0.73500
O129        O  0.33168652  0.16844434  0.86952497    -0.73300
O130        O  0.34128163  0.20375669  0.80955812    -0.72900
O131        O  0.40326740  0.20642764  0.86895759    -0.73500
O132        O  0.38957258  0.22773607  0.80828276    -0.73100
O133        O  0.30637409  0.16692226  0.84538472    -0.73700
O134        O  0.33353744  0.10952086  0.80869737    -0.73100
O135        O  0.36938170  0.13513762  0.86910543    -0.73900
O136        O  0.30813419  0.13259354  0.80854224    -0.73300
O137        O  0.36841411  0.11000239  0.84486207    -0.73700
O138        O  0.40442896  0.14595719  0.80889467    -0.73600
O139        O  0.42751828  0.19417940  0.80885523    -0.73400
C140        C  0.42466850  0.22800448  0.86142897     0.78400
C141        C  0.30922097  0.16729359  0.86247283     0.78900
C142        C  0.36506017  0.22509071  0.80410699     0.77800
C143        C  0.31154221  0.11136524  0.80370857     0.78200
C144        C  0.36883056  0.11299283  0.86193457     0.79300
C145        C  0.42574861  0.17024980  0.80413418     0.78400
C146        C  0.18138371  0.14379657  0.57250048     0.04400
C147        C  0.17704036  0.16435411  0.58201061    -0.11800
C148        C  0.19958477  0.18593035  0.59244150     0.01900
C149        C  0.22643858  0.18678955  0.59329271    -0.10300
C150        C  0.23084867  0.16633216  0.58391741     0.04300
C151        C  0.20830202  0.14486077  0.57358539    -0.09700
H152        H  0.15635749  0.16374209  0.58114687     0.09900
H153        H  0.24395578  0.20344855  0.60123677     0.07500
H154        H  0.21183762  0.12921931  0.56618046     0.07300
C155        C  0.02897977  0.35649960  0.57723670     0.04400
C156        C  0.00232122  0.33053997  0.57770921    -0.11800
C157        C  0.99895794  0.30737515  0.58835663     0.01900
C158        C  0.02229387  0.31015631  0.59862606    -0.10300
C159        C  0.04926731  0.33570817  0.59796082     0.04300
C160        C  0.05246153  0.35897576  0.58736305    -0.09700
H161        H  0.48432188  0.32819574  0.56956433     0.09900
H162        H  0.01973290  0.29204055  0.60668461     0.07500
H163        H  0.07325709  0.37874923  0.58676605     0.07300
C164        C  0.34692017  0.48471692  0.59372644     0.04400
C165        C  0.34750297  0.01173635  0.59399342    -0.11800
C166        C  0.36857384  0.03540559  0.58421235     0.01900
C167        C  0.38926240  0.03234893  0.57415161    -0.10300
C168        C  0.38896992  0.50572852  0.57366893     0.04300
C169        C  0.36792987  0.48206347  0.58357289    -0.09700
H170        H  0.33147865  0.01413017  0.60176653     0.09900
H171        H  0.40530461  0.05055976  0.56642279     0.07500
H172        H  0.36775352  0.46157108  0.58325101     0.07300
C173        C  0.39308251  0.19634572  0.58614359     0.81400
N174        N  0.39387231  0.17116567  0.58524613    -0.76900
C175        C  0.36883764  0.14521847  0.58481192     0.83900
N176        N  0.34298837  0.14479252  0.58504627    -0.76800
C177        C  0.34198307  0.16986550  0.58569825     0.84000
N178        N  0.36713054  0.19558669  0.58636202    -0.78500
Zn179      Zn  0.23454916  0.33299582  0.65575859     1.49700
Zn180      Zn  0.20148829  0.36992044  0.65750033     1.49400
Zn181      Zn  0.16473049  0.30017073  0.65732979     1.49100
Zn182      Zn  0.20158650  0.33405965  0.69194525     1.49500
O183        O  0.20067669  0.33429295  0.66554595    -1.82900
O184        O  0.25898382  0.36812912  0.64011234    -0.73500
O185        O  0.16619700  0.36054046  0.64258122    -0.73300
O186        O  0.17317886  0.27443372  0.64124232    -0.72900
O187        O  0.23695545  0.39441252  0.64212965    -0.73500
O188        O  0.22141297  0.29664728  0.64035382    -0.73100
O189        O  0.14017570  0.31243916  0.64323466    -0.73700
O190        O  0.16632300  0.29933982  0.70225281    -0.73100
O191        O  0.20116935  0.39391797  0.67875762    -0.73900
O192        O  0.14072373  0.27557743  0.67821924    -0.73300
O193        O  0.20247089  0.36958179  0.70257333    -0.73700
O194        O  0.23706440  0.33336734  0.70072465    -0.73600
O195        O  0.26092331  0.33387551  0.67606538    -0.73400
C196        C  0.25752472  0.39075462  0.63623324     0.78400
C197        C  0.14358014  0.33690289  0.63831594     0.78900
C198        C  0.19657895  0.27572828  0.63579837     0.77800
C199        C  0.14404637  0.27797652  0.69525877     0.78200
C200        C  0.20167844  0.39117596  0.69579422     0.79300
C201        C  0.25899188  0.33402349  0.69321652     0.78400
C202        C  0.38046669  0.35118544  0.42714352     0.04400
C203        C  0.35471479  0.35254171  0.42614046    -0.11800
C204        C  0.33164952  0.33294915  0.41523906     0.01900
C205        C  0.33460856  0.31222597  0.40511622    -0.10300
C206        C  0.35999833  0.31025046  0.40617138     0.04300
C207        C  0.38283332  0.32970751  0.41736824    -0.09700
H208        H  0.35269039  0.36892324  0.43376593     0.09900
H209        H  0.31693930  0.29741305  0.39646946     0.07500
H210        H  0.40257225  0.32846087  0.41825787     0.07300
C211        C  0.01212851  0.16818778  0.40669328     0.04400
C212        C  0.00819877  0.14406091  0.41667996    -0.11800
C213        C  0.03072908  0.14611422  0.42763502     0.01900
C214        C  0.05713567  0.17220436  0.42850813    -0.10300
C215        C  0.06116945  0.19618594  0.41850108     0.04300
C216        C  0.03864589  0.19417853  0.40767801    -0.09700
H217        H  0.48782050  0.12386044  0.41590364     0.09900
H218        H  0.07472160  0.17367232  0.43670369     0.07500
H219        H  0.04189796  0.21272578  0.39980634     0.07300
C220        C  0.21684718  0.01385921  0.40272175     0.04400
C221        C  0.19637888  0.01723286  0.41305014    -0.11800
C222        C  0.17409773  0.99349645  0.42225300     0.01900
C223        C  0.17284351  0.46652181  0.42116112    -0.10300
C224        C  0.19311945  0.46308087  0.41089678     0.04300
C225        C  0.21494978  0.48680742  0.40161295    -0.09700
H226        H  0.19769758  0.03824374  0.41384339     0.09900
H227        H  0.15615022  0.44817165  0.42846328     0.07500
H228        H  0.23054455  0.48401993  0.39363026     0.07300
C229        C  0.17019518  0.30373388  0.41345574     0.81400
N230        N  0.19629493  0.30474341  0.41361206    -0.76900
C231        C  0.22123469  0.33041598  0.41174837     0.83900
N232        N  0.22008766  0.35526162  0.41000726    -0.76800
C233        C  0.19411133  0.35449253  0.40990819     0.84000
N234        N  0.16920611  0.32871978  0.41164766    -0.78500
Zn235      Zn  0.03196375  0.46298275  0.49034087     1.49700
Zn236      Zn  0.03283684  0.00088100  0.52468548     1.49400
Zn237      Zn  0.06602826  0.03322452  0.48903121     1.49100
Zn238      Zn  0.49594806  0.99736576  0.49001709     1.49500
O239        O  0.03169260  0.99858086  0.49835151    -1.82900
O240        O  0.03362931  0.44034694  0.51196710    -0.73500
O241        O  0.06848876  0.03632034  0.53395370    -0.73300
O242        O  0.08963696  0.02202682  0.47295412    -0.72900
O243        O  0.03376799  0.46681655  0.53529588    -0.73500
O244        O  0.06678148  0.47349341  0.47409499    -0.73100
O245        O  0.09284338  0.05824095  0.50925910    -0.73700
O246        O  0.00536265  0.03237772  0.47503274    -0.73100
O247        O  0.49766087  0.00092873  0.53481985    -0.73900
O248        O  0.05368998  0.05727738  0.47421261    -0.73300
O249        O  0.47131573  0.99757466  0.51082927    -0.73700
O250        O  0.47177315  0.46121570  0.47486098    -0.73600
O251        O  0.49557161  0.43655541  0.47586958    -0.73400
C252        C  0.03394298  0.44462656  0.52893181     0.78400
C253        C  0.09074498  0.05675319  0.52639550     0.78900
C254        C  0.08744404  0.99788147  0.46832931     0.77800
C255        C  0.02901510  0.05413166  0.46992387     0.78200
C256        C  0.47505531  0.99944433  0.52784098     0.79300
C257        C  0.47408646  0.43915985  0.47061338     0.78400
C258        C  0.36395394  0.01679133  0.26211970     0.04400
C259        C  0.39030010  0.01668516  0.26299662    -0.11800
C260        C  0.39402056  0.99611896  0.25331581     0.01900
C261        C  0.37148309  0.47550613  0.24204488    -0.10300
C262        C  0.34491638  0.47524666  0.24141357     0.04300
C263        C  0.34103856  0.99582190  0.25170147    -0.09700
H264        H  0.40809774  0.03295309  0.27096414     0.09900
H265        H  0.37430673  0.45961456  0.23439298     0.07500
H266        H  0.32069656  0.99592797  0.25092835     0.07300
C267        C  0.21321369  0.16220386  0.26042166     0.04400
C268        C  0.21553833  0.18492126  0.24959295    -0.11800
C269        C  0.19142941  0.18175475  0.23984537     0.01900
C270        C  0.16498476  0.15563057  0.24090826    -0.10300
C271        C  0.16248555  0.13280173  0.25163024     0.04300
C272        C  0.18656864  0.13627194  0.26144052    -0.09700
H273        H  0.23605567  0.20494429  0.24869688     0.09900
H274        H  0.14642646  0.15295383  0.23324127     0.07500
H275        H  0.18469725  0.11859278  0.26966949     0.07300
C276        C  0.01422543  0.31457127  0.26110413     0.04400
C277        C  0.01378387  0.34078457  0.26150446    -0.11800
C278        C  0.03438823  0.36485588  0.25185556     0.01900
C279        C  0.05566653  0.36275219  0.24178435    -0.10300
C280        C  0.05634890  0.33666822  0.24130252     0.04300
C281        C  0.03561988  0.31259036  0.25100420    -0.09700
H282        H  0.49718886  0.34235441  0.26918146     0.09900
H283        H  0.07142707  0.38125622  0.23414906     0.07500
H284        H  0.03587095  0.29231260  0.25047707     0.07300
C285        C  0.05487147  0.02300329  0.25251844     0.81400
N286        N  0.05555132  0.49774374  0.25167786    -0.76900
C287        C  0.03028391  0.47202670  0.25179559     0.83900
N288        N  0.00454848  0.47180963  0.25217748    -0.76800
C289        C  0.00378163  0.99746379  0.25315106     0.84000
N290        N  0.02925466  0.02292203  0.25303599    -0.78500
Zn291      Zn  0.19927200  0.36622739  0.17553081     1.49700
Zn292      Zn  0.16394381  0.29728041  0.17429346     1.49400
Zn293      Zn  0.19936455  0.33240174  0.13971609     1.49100
Zn294      Zn  0.23388691  0.33085925  0.17473694     1.49500
O295        O  0.19925877  0.33168258  0.16612409    -1.82900
O296        O  0.16465648  0.35575630  0.19144598    -0.73500
O297        O  0.13918666  0.27424273  0.15328106    -0.73300
O298        O  0.19854095  0.36757130  0.13055989    -0.72900
O299        O  0.13915986  0.30765434  0.18984593    -0.73500
O300        O  0.19853409  0.39106908  0.15540358    -0.73100
O301        O  0.16470153  0.29737425  0.12922572    -0.73700
O302        O  0.25885939  0.33151452  0.15374021    -0.73100
O303        O  0.17403412  0.27168677  0.18908208    -0.73900
O304        O  0.23487319  0.33316614  0.12965161    -0.73300
O305        O  0.22233508  0.29450256  0.18941088    -0.73700
O306        O  0.25843402  0.36586674  0.19064071    -0.73600
O307        O  0.23479308  0.39069378  0.19037976    -0.73400
C308        C  0.14254383  0.33173771  0.19563009     0.78400
C309        C  0.14221698  0.27644022  0.13623612     0.78900
C310        C  0.19834117  0.38892208  0.13830378     0.77800
C311        C  0.25637207  0.33246711  0.13669606     0.78200
C312        C  0.19780436  0.27332410  0.19402602     0.79300
C313        C  0.25608954  0.38773728  0.19542201     0.78400
Zn314      Zn  0.36575377  0.20158908  0.32276120     1.49700
Zn315      Zn  0.39898856  0.16510983  0.32329422     1.49400
Zn316      Zn  0.36412565  0.16530472  0.35842114     1.49100
Zn317      Zn  0.32901120  0.13227957  0.32340808     1.49500
O318        O  0.36454660  0.16627696  0.33196672    -1.82900
O319        O  0.40176883  0.22521274  0.30729740    -0.73500
O320        O  0.42391849  0.16518524  0.34386942    -0.73300
O321        O  0.36406354  0.20081860  0.36809356    -0.72900
O322        O  0.42470791  0.19972690  0.30790759    -0.73500
O323        O  0.36639312  0.22650840  0.34382911    -0.73100
O324        O  0.39954771  0.16502139  0.36817312    -0.73700
O325        O  0.30419368  0.10716974  0.34377907    -0.73100
O326        O  0.38688934  0.12916722  0.30837362    -0.73900
O327        O  0.32880188  0.12964968  0.36841704    -0.73300
O328        O  0.33865938  0.10721908  0.30812275    -0.73700
O329        O  0.30469984  0.14345830  0.30830430    -0.73600
O330        O  0.33004566  0.19157662  0.30742489    -0.73400
C331        C  0.42308445  0.22172898  0.30278084     0.78400
C332        C  0.42143064  0.16516859  0.36094321     0.78900
C333        C  0.36518674  0.22311683  0.36089416     0.77800
C334        C  0.30690327  0.10860148  0.36085079     0.78200
C335        C  0.36229675  0.10839611  0.30347523     0.79300
C336        C  0.30782164  0.16760184  0.30299089     0.78400
C337        C  0.03312531  0.39217951  0.25191045    -0.04100
C338        C  0.01890260  0.39794785  0.23780892    -0.01200
C339        C  0.01764218  0.42390448  0.23783900     0.03800
C340        C  0.03088994  0.44436725  0.25189957    -0.04100
C341        C  0.04488177  0.43840573  0.26609203    -0.01200
C342        C  0.04583537  0.41230315  0.26614316     0.03800
C343        C  0.00542140  0.37699816  0.22333348     0.38400
C344        C  0.05758272  0.45878659  0.28092679     0.38400
C345        C  0.05976364  0.40601476  0.28088848     0.36800
C346        C  0.00329110  0.42983053  0.22317841     0.36800
N347        N  0.07076160  0.40089342  0.29267180    -0.38000
N348        N  0.99181519  0.43453945  0.21148853    -0.38000
N349        N  0.06763979  0.47510160  0.29273712    -0.37400
N350        N  0.99469787  0.36018841  0.21183561    -0.37400
C351        C  0.49148404  0.28903259  0.27096968    -0.04100
C352        C  0.46265232  0.27458457  0.26451985    -0.01200
C353        C  0.44039409  0.25219238  0.27471847     0.03800
C354        C  0.44681149  0.24401123  0.29145023    -0.04100
C355        C  0.47599925  0.25741177  0.29739343    -0.01200
C356        C  0.49820625  0.27999352  0.28724421     0.03800
C357        C  0.45602955  0.28264072  0.24723608     0.38400
C358        C  0.48314520  0.24859665  0.31422877     0.38400
C359        C  0.02787643  0.29458690  0.29380772     0.36800
C360        C  0.41104268  0.23685001  0.26766969     0.36800
N361        N  0.05156813  0.30630687  0.29899727    -0.38000
N362        N  0.38767089  0.22445907  0.26197827    -0.38000
N363        N  0.48887662  0.24147491  0.32761391    -0.37400
N364        N  0.45094866  0.28913188  0.23341162    -0.37400
C365        C  0.07815021  0.33434051  0.22988477    -0.04100
C366        C  0.07089333  0.32342019  0.21213043    -0.01200
C367        C  0.09180939  0.32206805  0.20100611     0.03800
C368        C  0.12018587  0.33191738  0.20753864    -0.04100
C369        C  0.12736564  0.34257204  0.22535875    -0.01200
C370        C  0.10640277  0.34382731  0.23649616     0.03800
C371        C  0.04205397  0.31425541  0.20519525     0.38400
C372        C  0.15616541  0.35159962  0.23233841     0.38400
C373        C  0.11389488  0.35498157  0.25474393     0.36800
C374        C  0.08441485  0.31141701  0.18263859     0.36800
N375        N  0.11989016  0.36391767  0.26929860    -0.38000
N376        N  0.07857611  0.30295301  0.16797865    -0.38000
N377        N  0.17913781  0.35864081  0.23783331    -0.37400
N378        N  0.01904939  0.30707038  0.19970850    -0.37400
C379        C  0.08253089  0.05087237  0.25239037    -0.04100
C380        C  0.10039537  0.05933152  0.23694753    -0.01200
C381        C  0.12642855  0.08619325  0.23669524     0.03800
C382        C  0.13489040  0.10462177  0.25195131    -0.04100
C383        C  0.11721188  0.09592875  0.26750504    -0.01200
C384        C  0.09098010  0.06921785  0.26766514     0.03800
C385        C  0.09169806  0.04061143  0.22118537     0.38400
C386        C  0.12593855  0.11454360  0.28330852     0.38400
C387        C  0.07290593  0.06026797  0.28367742     0.36800
C388        C  0.14482180  0.09472219  0.22083153     0.36800
N389        N  0.05839407  0.05297599  0.29640498    -0.38000
N390        N  0.15958797  0.10165878  0.20821974    -0.38000
N391        N  0.13293543  0.12932364  0.29595330    -0.37400
N392        N  0.08472984  0.02564711  0.20862583    -0.37400
C393        C  0.19378166  0.20572484  0.22830253    -0.04100
C394        C  0.21011191  0.21306909  0.21219285    -0.01200
C395        C  0.21155115  0.23519969  0.20097545     0.03800
C396        C  0.19670741  0.25020069  0.20581928    -0.04100
C397        C  0.18048546  0.24290340  0.22199724    -0.01200
C398        C  0.17903905  0.22077562  0.23317256     0.03800
C399        C  0.22475302  0.19723112  0.20691039     0.38400
C400        C  0.16583904  0.25870099  0.22741334     0.38400
C401        C  0.16272898  0.21378739  0.24988380     0.36800
C402        C  0.22725452  0.24162317  0.18405375     0.36800
N403        N  0.14972806  0.20818667  0.26321567    -0.38000
N404        N  0.23965983  0.24664979  0.17051178    -0.38000
N405        N  0.15420338  0.27135828  0.23167904    -0.37400
N406        N  0.23639330  0.18453401  0.20275282    -0.37400
C407        C  0.23876773  0.16510947  0.27057168    -0.04100
C408        C  0.25038824  0.18468644  0.28520078    -0.01200
C409        C  0.27309178  0.18570925  0.29569947     0.03800
C410        C  0.28478109  0.16753513  0.29144919    -0.04100
C411        C  0.27359416  0.14847178  0.27647762    -0.01200
C412        C  0.25071181  0.14727832  0.26611966     0.03800
C413        C  0.23833760  0.20317101  0.28981281     0.38400
C414        C  0.28585066  0.13028321  0.27150143     0.38400
C415        C  0.23963514  0.12791392  0.25067312     0.36800
C416        C  0.28317554  0.20423243  0.31154228     0.36800
N417        N  0.23070163  0.11251375  0.23834990    -0.38000
N418        N  0.29110781  0.21882044  0.32426471    -0.38000
N419        N  0.29554508  0.11571972  0.26751481    -0.37400
N420        N  0.22877286  0.21798781  0.29341221    -0.37400
C421        C  0.47589304  0.99757095  0.25343066    -0.04100
C422        C  0.45619491  0.48392747  0.26686156    -0.01200
C423        C  0.42963934  0.48402592  0.26693128     0.03800
C424        C  0.42238190  0.99707037  0.25357764    -0.04100
C425        C  0.44257067  0.01126593  0.23963819    -0.01200
C426        C  0.46930928  0.01159917  0.23957656     0.03800
C427        C  0.46345567  0.47111796  0.28178566     0.38400
C428        C  0.43585415  0.02576458  0.22545464     0.38400
C429        C  0.48973758  0.02579702  0.22500402     0.36800
C430        C  0.40946193  0.47107399  0.28177806     0.36800
N431        N  0.00607477  0.03715511  0.21340584    -0.38000
N432        N  0.39334013  0.46092078  0.29362564    -0.38000
N433        N  0.43043805  0.03736353  0.21419928    -0.37400
N434        N  0.46927769  0.46096243  0.29371622    -0.37400
C435        C  0.32087122  0.45311723  0.23021778    -0.04100
C436        C  0.31220053  0.46134142  0.21435220    -0.01200
C437        C  0.29117966  0.43999677  0.20290136     0.03800
C438        C  0.27845845  0.41025854  0.20735270    -0.04100
C439        C  0.28650826  0.40217840  0.22355632    -0.01200
C440        C  0.30758309  0.42354160  0.23494887     0.03800
C441        C  0.32530396  0.49178119  0.20965332     0.38400
C442        C  0.27240207  0.37193807  0.22885265     0.38400
C443        C  0.31508031  0.41520684  0.25184603     0.36800
C444        C  0.28348781  0.44867193  0.18619884     0.36800
N445        N  0.32103997  0.40870006  0.26537731    -0.38000
N446        N  0.27742300  0.45562862  0.17286964    -0.38000
N447        N  0.26108043  0.34781689  0.23307628    -0.37400
N448        N  0.33799597  0.01601000  0.20578628    -0.37400
C449        C  0.36109274  0.08477563  0.29218625    -0.04100
C450        C  0.37845844  0.09141982  0.27656124    -0.01200
C451        C  0.37833395  0.06898923  0.26630060     0.03800
C452        C  0.36117290  0.03983927  0.27171810    -0.04100
C453        C  0.34289013  0.03306344  0.28689039    -0.01200
C454        C  0.34275468  0.05547319  0.29708351     0.03800
C455        C  0.39600777  0.12130256  0.27079072     0.38400
C456        C  0.32495159  0.00310739  0.29237741     0.38400
C457        C  0.32464724  0.04836327  0.31305345     0.36800
C458        C  0.39562790  0.07583727  0.24999338     0.36800
N459        N  0.31020759  0.04278974  0.32577263    -0.38000
N460        N  0.40932074  0.08120725  0.23695614    -0.38000
N461        N  0.31262701  0.47924670  0.29658111    -0.37400
N462        N  0.40997885  0.14513290  0.26620200    -0.37400
C463        C  0.19250566  0.43483537  0.41068218    -0.04100
C464        C  0.20495507  0.42754564  0.42509878    -0.01200
C465        C  0.20542058  0.40124642  0.42475785     0.03800
C466        C  0.19325276  0.38195488  0.41004378    -0.04100
C467        C  0.18033901  0.38899493  0.39573546    -0.01200
C468        C  0.17995567  0.41542428  0.39606913     0.03800
C469        C  0.21736553  0.44722098  0.44028946     0.38400
C470        C  0.16829934  0.36951267  0.38043653     0.38400
C471        C  0.16648774  0.42263214  0.38148748     0.36800
C472        C  0.21803476  0.39377646  0.43972490     0.36800
N473        N  0.15568676  0.42844324  0.36991460    -0.38000
N474        N  0.22808538  0.38767888  0.45159389    -0.38000
N475        N  0.15880368  0.35405347  0.36817800    -0.37400
N476        N  0.22716359  0.46291658  0.45241264    -0.37400
C477        C  0.24005841  0.03881553  0.39248719    -0.04100
C478        C  0.26974250  0.04900170  0.39619836    -0.01200
C479        C  0.29157957  0.07194947  0.38603193     0.03800
C480        C  0.28398383  0.08504710  0.37205882    -0.04100
C481        C  0.25427061  0.07486240  0.36842177    -0.01200
C482        C  0.23249713  0.05188978  0.37854028     0.03800
C483        C  0.27789056  0.03590282  0.41053281     0.38400
C484        C  0.24592570  0.08824577  0.35437376     0.38400
C485        C  0.20217182  0.04106153  0.37418673     0.36800
C486        C  0.32186985  0.08115287  0.38946680     0.36800
N487        N  0.17809609  0.53296236  0.37092243    -0.38000
N488        N  0.34602304  0.08843308  0.39215480    -0.38000
N489        N  0.23925776  0.09886097  0.34314133    -0.37400
N490        N  0.28440574  0.02537983  0.42190669    -0.37400
C491        C  0.10974881  0.99790127  0.45607883    -0.04100
C492        C  0.10141048  0.48109346  0.44011651    -0.01200
C493        C  0.12255039  0.48072076  0.42868321     0.03800
C494        C  0.15219688  0.99665212  0.43325348    -0.04100
C495        C  0.16072858  0.01424014  0.44890183    -0.01200
C496        C  0.13962117  0.01491599  0.46024002     0.03800
C497        C  0.07100568  0.46510480  0.43504304     0.38400
C498        C  0.19121234  0.03097193  0.45367187     0.38400
C499        C  0.14866586  0.03225601  0.47660838     0.36800
C500        C  0.11374361  0.46445368  0.41190453     0.36800
N501        N  0.15586358  0.04606933  0.48966829    -0.38000
N502        N  0.10679774  0.45157908  0.39848629    -0.38000
N503        N  0.21554812  0.04438554  0.45741686    -0.37400
N504        N  0.04675042  0.45242702  0.43100632    -0.37400
C505        C  0.14296178  0.27557573  0.41560555    -0.04100
C506        C  0.13780345  0.25145527  0.40477835    -0.01200
C507        C  0.11134307  0.22522070  0.40620031     0.03800
C508        C  0.08979939  0.22297414  0.41828380    -0.04100
C509        C  0.09531936  0.24645227  0.42969779    -0.01200
C510        C  0.12191121  0.27266519  0.42845421     0.03800
C511        C  0.15925152  0.25375309  0.39173390     0.38400
C512        C  0.07370462  0.24343539  0.44283731     0.38400
C513        C  0.12799908  0.29622236  0.44086348     0.36800
C514        C  0.10605993  0.20048002  0.39510185     0.36800
N515        N  0.13296572  0.31496529  0.45082613    -0.38000
N516        N  0.10176217  0.18063330  0.38635369    -0.38000
N517        N  0.05647649  0.24092136  0.45335910    -0.37400
N518        N  0.17635386  0.25549418  0.38135269    -0.37400
C519        C  0.48849727  0.16661785  0.39516384    -0.04100
C520        C  0.48246987  0.15262495  0.37824474    -0.01200
C521        C  0.46021647  0.15149990  0.36722621     0.03800
C522        C  0.44462024  0.16562062  0.37270028    -0.04100
C523        C  0.45161221  0.18053724  0.38948776    -0.01200
C524        C  0.47297358  0.18046245  0.40076253     0.03800
C525        C  0.99991215  0.14022502  0.37192146     0.38400
C526        C  0.43793544  0.19722947  0.39495699     0.38400
C527        C  0.47918336  0.19483167  0.41820144     0.36800
C528        C  0.45315018  0.13518432  0.35046633     0.36800
N529        N  0.48419246  0.20620792  0.43212892    -0.38000
N530        N  0.44754692  0.12210755  0.33712609    -0.38000
N531        N  0.42718192  0.21068735  0.39930484    -0.37400
N532        N  0.01406895  0.13065361  0.36682032    -0.37400
C533        C  0.02752575  0.12076601  0.43786246    -0.04100
C534        C  0.01663259  0.11583070  0.45563120    -0.01200
C535        C  0.01637652  0.09346179  0.46597713     0.03800
C536        C  0.02772836  0.07647307  0.45873058    -0.04100
C537        C  0.03795677  0.08096789  0.44080376    -0.01200
C538        C  0.03765449  0.10294090  0.43035190     0.03800
C539        C  0.00648053  0.13433430  0.46340892     0.38400
C540        C  0.04835648  0.06265603  0.43303522     0.38400
C541        C  0.04801055  0.10746270  0.41189408     0.36800
C542        C  0.00525332  0.08847990  0.48427193     0.36800
N543        N  0.05615958  0.11107611  0.39714467    -0.38000
N544        N  0.99632691  0.08437956  0.49885121    -0.38000
N545        N  0.05657332  0.04797424  0.42685202    -0.37400
N546        N  0.99850011  0.14919293  0.46961757    -0.37400
C547        C  0.30391775  0.33355827  0.41454922    -0.04100
C548        C  0.28532074  0.32480327  0.42968368    -0.01200
C549        C  0.25818480  0.32359234  0.42869428     0.03800
C550        C  0.24964685  0.33152567  0.41265996    -0.04100
C551        C  0.26835014  0.34065672  0.39760218    -0.01200
C552        C  0.29533400  0.34148831  0.39849992     0.03800
C553        C  0.29383825  0.31642409  0.44617499     0.38400
C554        C  0.25942362  0.34836030  0.38100748     0.38400
C555        C  0.31433641  0.35057871  0.38291603     0.36800
C556        C  0.23913352  0.31449582  0.44426653     0.36800
N557        N  0.32949053  0.35772641  0.37048243    -0.38000
N558        N  0.22382211  0.30720085  0.45662687    -0.38000
N559        N  0.25222870  0.35444280  0.36777699    -0.37400
N560        N  0.30068630  0.30981977  0.45934067    -0.37400
C561        C  0.36244702  0.28784867  0.39523437    -0.04100
C562        C  0.34169780  0.25813405  0.39724473    -0.01200
C563        C  0.34261594  0.23708999  0.38600439     0.03800
C564        C  0.36453076  0.24542607  0.37278558    -0.04100
C565        C  0.38571000  0.27500345  0.37105560    -0.01200
C566        C  0.38460100  0.29613590  0.38215844     0.03800
C567        C  0.31943506  0.24906763  0.41102324     0.38400
C568        C  0.40914371  0.28367145  0.35815442     0.38400
C569        C  0.40590763  0.32651665  0.37977951     0.36800
C570        C  0.32030338  0.20687924  0.38766218     0.36800
N571        N  0.42294674  0.35075444  0.37797085    -0.38000
N572        N  0.30251801  0.18279289  0.38893734    -0.38000
N573        N  0.42790321  0.29057958  0.34791777    -0.37400
N574        N  0.30161897  0.24185104  0.42196032    -0.37400
C575        C  0.45116974  0.41617203  0.45910730    -0.04100
C576        C  0.44362969  0.42359302  0.44246583    -0.01200
C577        C  0.42105984  0.40216254  0.43186097     0.03800
C578        C  0.40542512  0.37321519  0.43791648    -0.04100
C579        C  0.41329507  0.36559964  0.45433513    -0.01200
C580        C  0.43620413  0.38695730  0.46484860     0.03800
C581        C  0.45954351  0.45323166  0.43601790     0.38400
C582        C  0.39727541  0.33590061  0.46062812     0.38400
C583        C  0.44358060  0.37903999  0.48192464     0.36800
C584        C  0.41424724  0.40973859  0.41447392     0.36800
N585        N  0.44948349  0.37274740  0.49555292    -0.38000
N586        N  0.40881378  0.41560661  0.40055426    -0.38000
N587        N  0.38444344  0.31218759  0.46561757    -0.37400
N588        N  0.47223802  0.47687270  0.43088533    -0.37400
C589        C  0.36953853  0.11741102  0.58423671    -0.04100
C590        C  0.35002339  0.09428771  0.57297751    -0.01200
C591        C  0.34969673  0.06753036  0.57304551     0.03800
C592        C  0.36887646  0.06356485  0.58425341    -0.04100
C593        C  0.38886253  0.08669582  0.59513852    -0.01200
C594        C  0.38924506  0.11349896  0.59516821     0.03800
C595        C  0.33091295  0.09820054  0.56074662     0.38400
C596        C  0.40881505  0.08273499  0.60654643     0.38400
C597        C  0.40947292  0.13664277  0.60690013     0.36800
C598        C  0.33003958  0.04422346  0.56121004     0.36800
N599        N  0.42572835  0.15508712  0.61621862    -0.38000
N600        N  0.31443462  0.02579449  0.55165155    -0.38000
N601        N  0.42471748  0.07963005  0.61568714    -0.37400
N602        N  0.31567901  0.10130213  0.55098003    -0.37400
C603        C  0.32418589  0.45949628  0.60400803    -0.04100
C604        C  0.33191220  0.44782008  0.61869857    -0.01200
C605        C  0.31021924  0.42484561  0.62890824     0.03800
C606        C  0.28050981  0.41363970  0.62473763    -0.04100
C607        C  0.27285370  0.42486932  0.60976754    -0.01200
C608        C  0.29457382  0.44747014  0.59938271     0.03800
C609        C  0.36218490  0.46010256  0.62371878     0.38400
C610        C  0.24260036  0.41260032  0.60467105     0.38400
C611        C  0.28641874  0.45784047  0.58360419     0.36800
C612        C  0.31852402  0.41349274  0.64414809     0.36800
N613        N  0.27977782  0.46590147  0.57097833    -0.38000
N614        N  0.32508220  0.40433659  0.65628009    -0.38000
N615        N  0.21849204  0.40282143  0.60056775    -0.37400
N616        N  0.38633360  0.46990768  0.62772606    -0.37400
C617        C  0.41081144  0.50292946  0.56241272    -0.04100
C618        C  0.44091134  0.02014206  0.56643274    -0.01200
C619        C  0.46173864  0.01919612  0.55501502     0.03800
C620        C  0.45288315  0.00038563  0.53985395    -0.04100
C621        C  0.42263891  0.48244935  0.53617951    -0.01200
C622        C  0.40187087  0.48405307  0.54736431     0.03800
C623        C  0.45038624  0.03868400  0.58228388     0.38400
C624        C  0.41286213  0.46199413  0.52126107     0.38400
C625        C  0.37122763  0.46683165  0.54306986     0.36800
C626        C  0.49235323  0.03864763  0.55854400     0.36800
N627        N  0.34676730  0.45316959  0.53969468    -0.38000
N628        N  0.01675269  0.05420036  0.56131313    -0.38000
N629        N  0.40498905  0.44563987  0.50938270    -0.37400
N630        N  0.45818674  0.05348769  0.59491037    -0.37400
C631        C  0.47158619  0.27920918  0.58772948    -0.04100
C632        C  0.45144313  0.27093157  0.60198524    -0.01200
C633        C  0.42577699  0.24376198  0.60149788     0.03800
C634        C  0.42034389  0.22461449  0.58683876    -0.04100
C635        C  0.44072262  0.23284228  0.57267745    -0.01200
C636        C  0.46612487  0.26019990  0.57304094     0.03800
C637        C  0.45712479  0.29047583  0.61709827     0.38400
C638        C  0.43532777  0.21341456  0.55754224     0.38400
C639        C  0.48679707  0.26885281  0.55832526     0.36800
C640        C  0.40536700  0.23515292  0.61635144     0.36800
N641        N  0.00332728  0.27596494  0.54660763    -0.38000
N642        N  0.38907713  0.22821766  0.62819686    -0.38000
N643        N  0.43108627  0.19788663  0.54549252    -0.37400
N644        N  0.46170878  0.30608929  0.62914815    -0.37400
C645        C  0.07449421  0.33726959  0.60770987    -0.04100
C646        C  0.08456661  0.31789799  0.60312366    -0.01200
C647        C  0.10750197  0.31820844  0.61287148     0.03800
C648        C  0.12050504  0.33778272  0.62741137    -0.04100
C649        C  0.11093851  0.35774322  0.63166580    -0.01200
C650        C  0.08805466  0.35749042  0.62182325     0.03800
C651        C  0.07154791  0.29781837  0.58815437     0.38400
C652        C  0.12377002  0.37784004  0.64663512     0.38400
C653        C  0.07781742  0.37743573  0.62662072     0.36800
C654        C  0.11826634  0.29889995  0.60751315     0.36800
N655        N  0.06967612  0.39337830  0.63039185    -0.38000
N656        N  0.12688941  0.28355668  0.60321135    -0.38000
N657        N  0.13399988  0.39389306  0.65855824    -0.37400
N658        N  0.06103804  0.28175598  0.57626780    -0.37400
C659        C  0.03392899  0.42311004  0.54175578    -0.04100
C660        C  0.05204171  0.41092389  0.53879995    -0.01200
C661        C  0.05092179  0.38958620  0.55059225     0.03800
C662        C  0.03215650  0.38070578  0.56564832    -0.04100
C663        C  0.01523035  0.39396594  0.56916078    -0.01200
C664        C  0.01581686  0.41479966  0.55719680     0.03800
C665        C  0.07254487  0.42094925  0.52396025     0.38400
C666        C  0.49736824  0.38635023  0.58526303     0.38400
C667        C  0.49694160  0.42688835  0.56058232     0.36800
C668        C  0.06862765  0.37628330  0.54698262     0.36800
N669        N  0.48192186  0.43654004  0.56330548    -0.38000
N670        N  0.08277381  0.36567874  0.54416787    -0.38000
N671        N  0.48321170  0.38031924  0.59812916    -0.37400
N672        N  0.08902630  0.42906918  0.51219245    -0.37400
C673        C  0.31359959  0.16920250  0.58541220    -0.04100
C674        C  0.29099386  0.15070113  0.59719123    -0.01200
C675        C  0.26405902  0.15002414  0.59681664     0.03800
C676        C  0.25944752  0.16766961  0.58464421    -0.04100
C677        C  0.28196913  0.18631083  0.57298230    -0.01200
C678        C  0.30892547  0.18704181  0.57329904     0.03800
C679        C  0.29560648  0.13287130  0.61006067     0.38400
C680        C  0.27723056  0.20452187  0.56049063     0.38400
C681        C  0.33139945  0.20537360  0.56062889     0.36800
C682        C  0.24112470  0.13146137  0.60914679     0.36800
N683        N  0.34930363  0.21996542  0.55050904    -0.38000
N684        N  0.22283129  0.11676012  0.61901463    -0.38000
N685        N  0.27346071  0.21905135  0.55052905    -0.37400
N686        N  0.29930469  0.11862573  0.62029789    -0.37400
C687        C  0.19572861  0.20824577  0.60240584    -0.04100
C688        C  0.17882351  0.20089024  0.61826281    -0.01200
C689        C  0.17805721  0.22276972  0.62881326     0.03800
C690        C  0.19491936  0.25228512  0.62384331    -0.04100
C691        C  0.21054229  0.25937396  0.60745283    -0.01200
C692        C  0.21071208  0.23742114  0.59671813     0.03800
C693        C  0.16307631  0.17090446  0.62406905     0.38400
C694        C  0.22578044  0.28921719  0.60134187     0.38400
C695        C  0.22600239  0.24476039  0.57963226     0.36800
C696        C  0.16058815  0.21489292  0.64507308     0.36800
N697        N  0.23799093  0.25054747  0.56593117    -0.38000
N698        N  0.14647302  0.20857638  0.65796789    -0.38000
N699        N  0.23781433  0.31301901  0.59645820    -0.37400
N700        N  0.15057582  0.14697247  0.62868539    -0.37400
C701        C  0.15814200  0.12158096  0.56078132    -0.04100
C702        C  0.14342448  0.09215264  0.56588355    -0.01200
C703        C  0.12199406  0.07096639  0.55450782     0.03800
C704        C  0.11464874  0.07907272  0.53794315    -0.04100
C705        C  0.13012591  0.10860873  0.53268887    -0.01200
C706        C  0.15174625  0.12964920  0.54404785     0.03800
C707        C  0.15036409  0.08367711  0.58292856     0.38400
C708        C  0.12374955  0.11768957  0.51569788     0.38400
C709        C  0.16801090  0.15967194  0.53834222     0.36800
C710        C  0.10854840  0.04064880  0.55959896     0.36800
N711        N  0.18113965  0.18362943  0.53384634    -0.38000
N712        N  0.09797014  0.01648329  0.56364160    -0.38000
N713        N  0.11884156  0.12497819  0.50209821    -0.37400
N714        N  0.15594021  0.07695189  0.59651351    -0.37400
C715        C  0.03503896  0.05546896  0.75402916    -0.04100
C716        C  0.02223100  0.06207577  0.73944125    -0.01200
C717        C  0.02328037  0.08914629  0.73874819     0.03800
C718        C  0.03724618  0.10980720  0.75256270    -0.04100
C719        C  0.05048436  0.10347548  0.76698155    -0.01200
C720        C  0.04917899  0.07629104  0.76780542     0.03800
C721        C  0.50877924  0.04140688  0.72483454     0.38400
C722        C  0.06584788  0.12517536  0.78080596     0.38400
C723        C  0.06166070  0.06943649  0.78311369     0.36800
C724        C  0.51006895  0.09588655  0.72379052     0.36800
N725        N  0.07148649  0.06387663  0.79535292    -0.38000
N726        N  0.49964317  0.10145192  0.71188266    -0.38000
N727        N  0.07825557  0.14259903  0.79174628    -0.37400
N728        N  0.49813019  0.02494190  0.71315707    -0.37400
C729        C  0.12158192  0.25530176  0.70722688    -0.04100
C730        C  0.09165829  0.24217829  0.70284708    -0.01200
C731        C  0.07059894  0.22011129  0.71387314     0.03800
C732        C  0.07907566  0.21119417  0.72952675    -0.04100
C733        C  0.10874990  0.22463406  0.73416533    -0.01200
C734        C  0.12990836  0.24641003  0.72307507     0.03800
C735        C  0.08225755  0.25174402  0.68722594     0.38400
C736        C  0.11752015  0.21603850  0.75048800     0.38400
C737        C  0.16033330  0.25881913  0.72779502     0.36800
C738        C  0.04018264  0.20600061  0.70883430     0.36800
N739        N  0.18456947  0.26868755  0.73160896    -0.38000
N740        N  0.01593146  0.19470891  0.70479913    -0.38000
N741        N  0.12439822  0.20908401  0.76350200    -0.37400
N742        N  0.07476023  0.25938174  0.67477543    -0.37400
C743        C  0.49356351  0.16991312  0.77190077    -0.04100
C744        C  0.46467225  0.15596092  0.76556579    -0.01200
C745        C  0.44255206  0.15627796  0.77601443     0.03800
C746        C  0.44919090  0.17067001  0.79287165    -0.04100
C747        C  0.47825082  0.18513745  0.79903802    -0.01200
C748        C  0.50034140  0.18468333  0.78859691     0.03800
C749        C  0.45778723  0.14127826  0.74822924     0.38400
C750        C  0.48523165  0.19940778  0.81650613     0.38400
C751        C  0.52992202  0.19860391  0.79527695     0.36800
C752        C  0.41301954  0.14224394  0.76924099     0.36800
N753        N  0.55353164  0.20963284  0.80058446    -0.38000
N754        N  0.38946420  0.13109337  0.76383159    -0.38000
N755        N  0.49073643  0.21070191  0.83046847    -0.37400
N756        N  0.95246656  0.12962587  0.73438468    -0.37400
C757        C  0.08789038  0.00117289  0.75491413    -0.04100
C758        C  0.09513578  0.98836070  0.76917025    -0.01200
C759        C  0.12140269  0.98769280  0.76869169     0.03800
C760        C  0.14049660  0.99981267  0.75396531    -0.04100
C761        C  0.13407287  0.51335758  0.74050368    -0.01200
C762        C  0.10784862  0.51406113  0.74094677     0.03800
C763        C  0.07596403  0.97665584  0.78458370     0.38400
C764        C  0.15429380  0.52678600  0.72572518     0.38400
C765        C  0.10071686  0.52739055  0.72625346     0.36800
C766        C  0.12886805  0.97457523  0.78334046     0.36800
N767        N  0.09501497  0.53801160  0.71453343    -0.38000
N768        N  0.13490658  0.96416061  0.79501842    -0.38000
N769        N  0.17055210  0.53750029  0.71400412    -0.37400
N770        N  0.06067620  0.96744788  0.79689407    -0.37400
C771        C  0.24478350  0.04341693  0.77103108    -0.04100
C772        C  0.25446437  0.03644458  0.78695912    -0.01200
C773        C  0.27647514  0.05859431  0.79752588     0.03800
C774        C  0.28916016  0.08794395  0.79216776    -0.04100
C775        C  0.28020985  0.09476306  0.77583805    -0.01200
C776        C  0.25810445  0.07258124  0.76532596     0.03800
C777        C  0.24101937  0.00649590  0.79279365     0.38400
C778        C  0.29418040  0.12454910  0.76963576     0.38400
C779        C  0.24915667  0.07968225  0.74851900     0.36800
C780        C  0.28499799  0.05123674  0.81440132     0.36800
N781        N  0.24201252  0.08525703  0.73508501    -0.38000
N782        N  0.29172777  0.04538773  0.82789347    -0.38000
N783        N  0.30540567  0.14830925  0.76468388    -0.37400
N784        N  0.23025925  0.98256437  0.79736221    -0.37400
C785        C  0.19844097  0.45545203  0.73078157    -0.04100
C786        C  0.21308309  0.46374481  0.71411806    -0.01200
C787        C  0.21484200  0.44304528  0.70295042     0.03800
C788        C  0.20094754  0.41341164  0.70801332    -0.04100
C789        C  0.18580544  0.40512245  0.72468936    -0.01200
C790        C  0.18482115  0.42610174  0.73603325     0.03800
C791        C  0.22547114  0.49355694  0.70815749     0.38400
C792        C  0.17023175  0.37487502  0.73003749     0.38400
C793        C  0.16962624  0.41746175  0.75314699     0.36800
C794        C  0.23170240  0.45266390  0.68646558     0.36800
N795        N  0.15747633  0.41057178  0.76677969    -0.38000
N796        N  0.24522320  0.46040859  0.67334723    -0.38000
N797        N  0.15778742  0.35077163  0.73432341    -0.37400
N798        N  0.23577850  0.01733891  0.70330489    -0.37400
C799        C  0.42770484  0.39522352  0.75245223    -0.04100
C800        C  0.45075960  0.39982642  0.74092765    -0.01200
C801        C  0.47740368  0.42610708  0.74177343     0.03800
C802        C  0.48121230  0.44805928  0.75421901    -0.04100
C803        C  0.45814123  0.44312272  0.76596243    -0.01200
C804        C  0.43152668  0.41679146  0.76506981     0.03800
C805        C  0.44696560  0.37741708  0.72815772     0.38400
C806        C  0.46206248  0.46464489  0.77945293     0.38400
C807        C  0.40811084  0.41160075  0.77733144     0.36800
C808        C  0.50058202  0.43073914  0.72945080     0.36800
N809        N  0.38940264  0.40730276  0.78712701    -0.38000
N810        N  0.51910504  0.43441478  0.71965910    -0.38000
N811        N  0.46521355  0.48178394  0.79024452    -0.37400
N812        N  0.44388424  0.35948055  0.71801096    -0.37400
C813        C  0.36558064  0.29199995  0.77095597    -0.04100
C814        C  0.35212793  0.28592020  0.78804138    -0.01200
C815        C  0.35151797  0.26372930  0.79881155     0.03800
C816        C  0.36429049  0.24744349  0.79249591    -0.04100
C817        C  0.37679662  0.25289096  0.77511061    -0.01200
C818        C  0.37735852  0.27504246  0.76437100     0.03800
C819        C  0.33940175  0.30290344  0.79463912     0.38400
C820        C  0.38866402  0.23534526  0.76814167     0.38400
C821        C  0.38994873  0.28039606  0.74646041     0.36800
C822        C  0.33890164  0.25853804  0.81671167     0.36800
N823        N  0.39983796  0.28468495  0.73212983    -0.38000
N824        N  0.32893556  0.25444434  0.83101924    -0.38000
N825        N  0.39805547  0.22127431  0.76259719    -0.37400
N826        N  0.32918699  0.31643539  0.79983379    -0.37400
C827        C  0.32703301  0.33737137  0.72758681    -0.04100
C828        C  0.31037280  0.34990130  0.73333892    -0.01200
C829        C  0.28872426  0.34936670  0.72203342     0.03800
C830        C  0.28281903  0.33542717  0.70488823    -0.04100
C831        C  0.29972944  0.32280780  0.69921881    -0.01200
C832        C  0.32169058  0.32385562  0.71052860     0.03800
C833        C  0.31533169  0.36309188  0.75111334     0.38400
C834        C  0.29447987  0.30826234  0.68189353     0.38400
C835        C  0.33901946  0.31111443  0.70459892     0.36800
C836        C  0.27344478  0.36428934  0.72798347     0.36800
N837        N  0.35287568  0.30095614  0.69994345    -0.38000
N838        N  0.26133300  0.37623652  0.73275434    -0.38000
N839        N  0.29047208  0.29674520  0.66805063    -0.37400
N840        N  0.31921099  0.37344659  0.76532386    -0.37400
C841        C  0.49356835  0.29495226  0.89407490    -0.04100
C842        C  0.47992022  0.26561068  0.89941684    -0.01200
C843        C  0.45757930  0.24384694  0.88881097     0.03800
C844        C  0.44807304  0.25120886  0.87283530    -0.04100
C845        C  0.46158177  0.28080074  0.86767071    -0.01200
C846        C  0.48430637  0.30244615  0.87817202     0.03800
C847        C  0.48884031  0.25778129  0.91597726     0.38400
C848        C  0.45190473  0.28927929  0.85169903     0.38400
C849        C  0.99876134  0.33244058  0.87234477     0.36800
C850        C  0.44540630  0.21371959  0.89404859     0.36800
N851        N  0.01039020  0.35636924  0.86770460    -0.38000
N852        N  0.43581269  0.18970949  0.89822523    -0.38000
N853        N  0.44424932  0.29609292  0.83895205    -0.37400
N854        N  0.49595487  0.25156550  0.92918681    -0.37400
C855        C  0.03540000  0.38103511  0.93672350    -0.04100
C856        C  0.01292630  0.37292733  0.94957922    -0.01200
C857        C  0.01203582  0.39412827  0.96075711     0.03800
C858        C  0.03375394  0.42356267  0.95936059    -0.04100
C859        C  0.05592783  0.43176056  0.94637590    -0.01200
C860        C  0.05657703  0.41072160  0.93499456     0.03800
C861        C  0.49111470  0.34267630  0.95174290     0.38400
C862        C  0.07888314  0.46179019  0.94521088     0.38400
C863        C  0.07911629  0.41982927  0.92140325     0.36800
C864        C  0.48840097  0.38570585  0.97348473     0.36800
N865        N  0.09721291  0.42716080  0.91064950    -0.38000
N866        N  0.46953152  0.37906188  0.98360512    -0.38000
N867        N  0.09720265  0.48572252  0.94438151    -0.37400
N868        N  0.47361571  0.31856776  0.95343709    -0.37400
C869        C  0.14898600  0.33785409  0.91978354    -0.04100
C870        C  0.14464917  0.35436357  0.90647552    -0.01200
C871        C  0.11790046  0.35400436  0.90538825     0.03800
C872        C  0.09517459  0.33681000  0.91736947    -0.04100
C873        C  0.09936706  0.32023181  0.93058446    -0.01200
C874        C  0.12626539  0.32097622  0.93193336     0.03800
C875        C  0.16737073  0.37109442  0.89353822     0.38400
C876        C  0.07594935  0.30251207  0.94286450     0.38400
C877        C  0.13090554  0.30530053  0.94632687     0.36800
C878        C  0.11370479  0.37135495  0.89193692     0.36800
N879        N  0.13468177  0.29294716  0.95787248    -0.38000
N880        N  0.11036057  0.38522018  0.88122667    -0.38000
N881        N  0.05720017  0.28834674  0.95261148    -0.37400
N882        N  0.18550161  0.38439073  0.88321440    -0.37400
C883        C  0.20333592  0.28482524  0.92073350    -0.04100
C884        C  0.21162516  0.27466399  0.93588988    -0.01200
C885        C  0.21142947  0.24797852  0.93503126     0.03800
C886        C  0.20326647  0.23146476  0.91892660    -0.04100
C887        C  0.19575123  0.24209849  0.90361525    -0.01200
C888        C  0.19553423  0.26855664  0.90457624     0.03800
C889        C  0.21980819  0.29142892  0.95247882     0.38400
C890        C  0.18791135  0.22564861  0.88690625     0.38400
C891        C  0.18765633  0.27930745  0.88884614     0.36800
C892        C  0.22004900  0.23768493  0.95064517     0.36800
N893        N  0.18138096  0.28798120  0.87634624    -0.38000
N894        N  0.22690470  0.22940278  0.96307796    -0.38000
N895        N  0.18183907  0.21259965  0.87354918    -0.37400
N896        N  0.22632895  0.30484327  0.96569870    -0.37400
C897        C  0.24245117  0.16848209  0.89616921    -0.04100
C898        C  0.27187400  0.18378938  0.90148065    -0.01200
C899        C  0.29357867  0.18336476  0.89060342     0.03800
C900        C  0.28606124  0.16683097  0.87442300    -0.04100
C901        C  0.25628526  0.15030393  0.86962852    -0.01200
C902        C  0.23471950  0.15148262  0.88030544     0.03800
C903        C  0.27980887  0.19994585  0.91832055     0.38400
C904        C  0.24755089  0.13141579  0.85393966     0.38400
C905        C  0.20457190  0.13579187  0.87468449     0.36800
C906        C  0.32376375  0.20105199  0.89585033     0.36800
N907        N  0.18052254  0.12333663  0.87019314    -0.38000
N908        N  0.34781532  0.21522186  0.90006327    -0.38000
N909        N  0.24054534  0.11625214  0.84147017    -0.37400
N910        N  0.28599548  0.21270696  0.93178664    -0.37400
C911        C  0.11430933  0.08347384  0.96117790    -0.04100
C912        C  0.10574187  0.09623099  0.94750607    -0.01200
C913        C  0.12673457  0.11824325  0.93641486     0.03800
C914        C  0.15662438  0.12783636  0.93880721    -0.04100
C915        C  0.16519189  0.11519853  0.95252825    -0.01200
C916        C  0.14419619  0.09323789  0.96367130     0.03800
C917        C  0.07530583  0.08754711  0.94525900     0.38400
C918        C  0.19576939  0.12536730  0.95554839     0.38400
C919        C  0.15344404  0.08037667  0.97753690     0.36800
C920        C  0.11744498  0.13096968  0.92246541     0.36800
N921        N  0.16083067  0.07016787  0.98862799    -0.38000
N922        N  0.11002456  0.14124242  0.91143313    -0.38000
N923        N  0.22018092  0.13348905  0.95788076    -0.37400
N924        N  0.05104627  0.08065040  0.94350768    -0.37400
C925        C  0.30835991  0.44538138  0.91992671    -0.04100
C926        C  0.30369963  0.42266053  0.90805675    -0.01200
C927        C  0.27758872  0.39593529  0.90882589     0.03800
C928        C  0.25602615  0.39164846  0.92165072    -0.04100
C929        C  0.26088632  0.41446877  0.93362153    -0.01200
C930        C  0.28691643  0.44130078  0.93266815     0.03800
C931        C  0.32574485  0.42696879  0.89489416     0.38400
C932        C  0.23957388  0.41010783  0.94733259     0.38400
C933        C  0.29179297  0.46475506  0.94485336     0.36800
C934        C  0.27258392  0.37325854  0.89594304     0.36800
N935        N  0.29574639  0.48353392  0.95452707    -0.38000
N936        N  0.26854826  0.35516325  0.88566733    -0.38000
N937        N  0.22263336  0.40663049  0.95831476    -0.37400
N938        N  0.34332940  0.43045531  0.88438854    -0.37400
C939        C  0.36624283  0.04606440  0.89658621    -0.04100
C940        C  0.35004495  0.05980626  0.90096981    -0.01200
C941        C  0.35075970  0.08143632  0.88962904     0.03800
C942        C  0.36807250  0.08992925  0.87382690    -0.04100
C943        C  0.38427930  0.07603078  0.86946196    -0.01200
C944        C  0.38338070  0.05427697  0.88081689     0.03800
C945        C  0.33266626  0.05175240  0.91728277     0.38400
C946        C  0.40218908  0.08416831  0.85338587     0.38400
C947        C  0.39960578  0.03979515  0.87605701     0.36800
C948        C  0.33247662  0.09389363  0.89388704     0.36800
N949        N  0.41144906  0.52721181  0.87128332    -0.38000
N950        N  0.31782418  0.10375044  0.89724177    -0.38000
N951        N  0.41638365  0.09047539  0.84052607    -0.37400
N952        N  0.31880052  0.04531767  0.93028243    -0.37400
C953        C  0.41102380  0.00497866  0.93884955    -0.04100
C954        C  0.42179910  0.02371712  0.95390739    -0.01200
C955        C  0.44431160  0.52394043  0.96457928     0.03800
C956        C  0.45572360  0.00607180  0.96039680    -0.04100
C957        C  0.44532869  0.98781657  0.94502489    -0.01200
C958        C  0.42319296  0.98738970  0.93429399     0.03800
C959        C  0.40883312  0.54056313  0.95887812     0.38400
C960        C  0.45648946  0.96848939  0.94056710     0.38400
C961        C  0.41280177  0.96866047  0.91853932     0.36800
C962        C  0.45503756  0.54340640  0.97998321     0.36800
N963        N  0.40452325  0.95367785  0.90600272    -0.38000
N964        N  0.46358708  0.55895567  0.99225629    -0.38000
N965        N  0.96540357  0.95309863  0.93701559    -0.37400
N966        N  0.39821557  0.55429270  0.96287424    -0.37400
C967        C  0.25555068  0.06031133  0.08626793    -0.04100
C968        C  0.27343611  0.06701395  0.07089976    -0.01200
C969        C  0.30014065  0.09311795  0.07024544     0.03800
C970        C  0.30887088  0.11276072  0.08487006    -0.04100
C971        C  0.29080503  0.10623454  0.10014396    -0.01200
C972        C  0.26432360  0.07989396  0.10092302     0.03800
C973        C  0.26446776  0.04681739  0.05586421     0.38400
C974        C  0.29975393  0.12639442  0.11519855     0.38400
C975        C  0.24604928  0.07291195  0.11678004     0.36800
C976        C  0.31834521  0.10008872  0.05435339     0.36800
N977        N  0.23149961  0.06725207  0.12944796    -0.38000
N978        N  0.33288587  0.10570850  0.04168347    -0.38000
N979        N  0.30694366  0.14256365  0.12715924    -0.37400
N980        N  0.25719578  0.03065290  0.04389925    -0.37400
C981        C  0.19977456  0.45780830  0.10676220    -0.04100
C982        C  0.18062419  0.44615905  0.12152258    -0.01200
C983        C  0.17974688  0.42330021  0.13163222     0.03800
C984        C  0.19825835  0.41208109  0.12715941    -0.04100
C985        C  0.21716594  0.42354264  0.11221155    -0.01200
C986        C  0.21797066  0.44636089  0.10211068     0.03800
C987        C  0.16232201  0.45822711  0.12661247     0.38400
C988        C  0.23644838  0.41246375  0.10743396     0.38400
C989        C  0.23754813  0.45803327  0.08685391     0.36800
C990        C  0.15911025  0.41079731  0.14631490     0.36800
N991        N  0.25327282  0.46746395  0.07475736    -0.38000
N992        N  0.14260101  0.40077391  0.15798741    -0.38000
N993        N  0.25172563  0.40353934  0.10358823    -0.37400
N994        N  0.14775684  0.46789870  0.13063674    -0.37400
C995        C  0.10953730  0.49764027  0.04348345    -0.04100
C996        C  0.12056539  0.47868587  0.03984879    -0.01200
C997        C  0.14250128  0.47921049  0.05087570     0.03800
C998        C  0.15321489  0.49830401  0.06578078    -0.04100
C999        C  0.14041786  0.01707744  0.07057068    -0.01200
C1000       C  0.11904069  0.01686954  0.05919202     0.03800
C1001       C  0.11022409  0.45938350  0.02435893     0.38400
C1002       C  0.14969710  0.03536097  0.08655341     0.38400
C1003       C  0.10692759  0.03544344  0.06344969     0.36800
C1004       C  0.15470444  0.46075867  0.04651862     0.36800
N1005       N  0.09732464  0.05029030  0.06687628    -0.38000
N1006       N  0.16437702  0.44597348  0.04309285    -0.38000
N1007       N  0.15710960  0.04976923  0.09936333    -0.37400
N1008       N  0.10187108  0.44389274  0.01205268    -0.37400
C1009       C  0.36370381  0.21927392  0.08272969    -0.04100
C1010       C  0.34848916  0.22468764  0.06905113    -0.01200
C1011       C  0.34947957  0.25168950  0.06829581     0.03800
C1012       C  0.36595451  0.27348717  0.08103516    -0.04100
C1013       C  0.38114088  0.26815681  0.09470120    -0.01200
C1014       C  0.37987384  0.24103405  0.09563279     0.03800
C1015       C  0.33227506  0.20272311  0.05552216     0.38400
C1016       C  0.39770313  0.29050113  0.10795197     0.38400
C1017       C  0.39412257  0.23507529  0.11034939     0.26000
C1018       C  0.33324942  0.25700877  0.05455797     0.36800
N1019       N  0.40529257  0.23019598  0.12214407    -0.38000
N1020       N  0.32025455  0.26131299  0.04366935    -0.38000
N1021       N  0.41088725  0.30837200  0.11849945    -0.37400
N1022       N  0.31934600  0.18518534  0.04474113    -0.37400
C1023       C  0.32135758  0.33176526  0.10170409    -0.04100
C1024       C  0.29152017  0.31302158  0.09824973    -0.01200
C1025       C  0.27035138  0.31319208  0.10971661     0.03800
C1026       C  0.27878903  0.33239701  0.12463388    -0.04100
C1027       C  0.30862220  0.35144841  0.12790260    -0.01200
C1028       C  0.32979177  0.35092222  0.11659264     0.03800
C1029       C  0.28253273  0.29333616  0.08292827     0.38400
C1030       C  0.31764487  0.37207005  0.14270502     0.38400
C1031       C  0.36032553  0.36929643  0.12074986     0.36800
C1032       C  0.23988301  0.29264473  0.10656180     0.36800
N1033       N  0.38467040  0.38387123  0.12412793    -0.38000
N1034       N  0.21559563  0.27621991  0.10410419    -0.38000
N1035       N  0.32489850  0.38858788  0.15447656    -0.37400
N1036       N  0.27532390  0.27753152  0.07077372    -0.37400
C1037       C  0.40749786  0.37575846  0.05982217    -0.04100
C1038       C  0.43289040  0.39730157  0.06836202    -0.01200
C1039       C  0.45462945  0.42022232  0.05820616     0.03800
C1040       C  0.45107993  0.42172400  0.03946639    -0.04100
C1041       C  0.42561934  0.40031368  0.03093499    -0.01200
C1042       C  0.40392297  0.37731679  0.04107856     0.03800
C1043       C  0.43704900  0.39534547  0.08751149     0.38400
C1044       C  0.42214214  0.40158314  0.01162843     0.38400
C1045       C  0.37812293  0.35492546  0.03220876     0.36800
C1046       C  0.48082322  0.44215736  0.06698971     0.36800
N1047       N  0.35756223  0.33696162  0.02516391    -0.38000
N1048       N  0.00174850  0.45965784  0.07397054    -0.38000
N1049       N  0.41946719  0.40263323  0.99621745    -0.37400
N1050       N  0.44049053  0.39372054  0.10276715    -0.37400
C1051       C  0.47002314  0.16638926  0.08220204    -0.04100
C1052       C  0.44880157  0.14910639  0.09498081    -0.01200
C1053       C  0.42178459  0.14824236  0.09526786     0.03800
C1054       C  0.41569209  0.16419257  0.08246774    -0.04100
C1055       C  0.43660995  0.18048624  0.06920264    -0.01200
C1056       C  0.46385662  0.18193936  0.06926960     0.03800
C1057       C  0.45487054  0.13224985  0.10782471     0.38400
C1058       C  0.42969000  0.19479732  0.05500157     0.38400
C1059       C  0.48560285  0.19934380  0.05597440     0.36800
C1060       C  0.40069170  0.13163786  0.10907580     0.36800
N1061       N  0.00304222  0.21325932  0.04542902    -0.38000
N1062       N  0.38387400  0.11840123  0.12009574    -0.38000
N1063       N  0.42400953  0.20597732  0.04361107    -0.37400
N1064       N  0.45974766  0.11872245  0.11798016    -0.37400
C1065       C  0.07322814  0.21245797  0.10260391    -0.04100
C1066       C  0.07871352  0.20464135  0.11963997    -0.01200
C1067       C  0.10148128  0.22525081  0.13045118     0.03800
C1068       C  0.11890718  0.25422525  0.12436944    -0.04100
C1069       C  0.11341760  0.26178521  0.10701437    -0.01200
C1070       C  0.09073029  0.24088804  0.09621274     0.03800
C1071       C  0.06062831  0.17522776  0.12609364     0.38400
C1072       C  0.13036641  0.29116870  0.10027166     0.38400
C1073       C  0.08534929  0.24854397  0.07842858     0.36800
C1074       C  0.10711611  0.21608610  0.14766389     0.36800
N1075       N  0.08104779  0.25455785  0.06423006    -0.38000
N1076       N  0.11146465  0.20868942  0.16139852    -0.38000
N1077       N  0.14385482  0.31453764  0.09479551    -0.37400
N1078       N  0.04614844  0.15176893  0.13118321    -0.37400
C1079       C  0.03507897  0.08288564  0.04112496    -0.04100
C1080       C  0.04066238  0.10902281  0.03282874    -0.01200
C1081       C  0.03957511  0.13087549  0.04306816     0.03800
C1082       C  0.03257260  0.12646154  0.06155004    -0.04100
C1083       C  0.02763038  0.10061001  0.06994021    -0.01200
C1084       C  0.02901964  0.07886743  0.05974044     0.03800
C1085       C  0.04666026  0.11302411  0.01364624     0.38400
C1086       C  0.02073307  0.09630404  0.08900447     0.38400
C1087       C  0.02441401  0.05245795  0.06838230     0.36800
C1088       C  0.04539882  0.15782815  0.03461194     0.36800
N1089       N  0.02087632  0.03144937  0.07529637    -0.38000
N1090       N  0.05011963  0.17940371  0.02794553    -0.38000
N1091       N  0.01520180  0.09293338  0.10420944    -0.37400
N1092       N  0.05133016  0.11609595  0.99833196    -0.37400
C1093       C  0.04896587  0.69075725  0.09196408     0.04400
C1094       C  0.02199110  0.68963520  0.09190607    -0.11800
C1095       C  0.99860389  0.66764334  0.08237438     0.01900
C1096       C  0.00226061  0.64687420  0.07283079    -0.10300
C1097       C  0.02918753  0.64792312  0.07280550     0.04300
C1098       C  0.05252996  0.66990941  0.08237475    -0.09700
H1099       H  0.01909884  0.70556253  0.09945779     0.09900
H1100       H  0.48414966  0.62987810  0.06544498     0.07500
H1101       H  0.07327086  0.67056478  0.08256527     0.07300
C1102       C  0.38483728  0.85072861  0.07045959     0.04400
C1103       C  0.38551557  0.82464753  0.07067490    -0.11800
C1104       C  0.36524096  0.80117305  0.08087732     0.01900
C1105       C  0.34426519  0.80372414  0.09090266    -0.10300
C1106       C  0.34309893  0.82952969  0.09070352     0.04300
C1107       C  0.36352040  0.85310324  0.08043333    -0.09700
H1108       H  0.40186157  0.82267395  0.06299223     0.09900
H1109       H  0.32883252  0.78555398  0.09893241     0.07500
H1110       H  0.36291327  0.87320355  0.08026519     0.07300
C1111       C  0.19981398  0.98296200  0.09765012     0.04400
C1112       C  0.22675542  0.50919628  0.09621483    -0.11800
C1113       C  0.22860214  0.53209489  0.08595130     0.01900
C1114       C  0.20460683  0.52823644  0.07593826    -0.10300
C1115       C  0.17770013  0.00241473  0.07732413     0.04300
C1116       C  0.17577732  0.97943484  0.08767266    -0.09700
H1117       H  0.24538091  0.51222825  0.10395621     0.09900
H1118       H  0.20613480  0.54600586  0.06795970     0.07500
H1119       H  0.15574270  0.95883703  0.08786397     0.07300
C1120       C  0.33710570  0.64037095  0.08414346     0.81400
N1121       N  0.36234899  0.63966129  0.08375194    -0.76900
C1122       C  0.38815055  0.66473161  0.08316747     0.83900
N1123       N  0.38859823  0.69052281  0.08287798    -0.76800
C1124       C  0.36344559  0.69137064  0.08323674     0.84000
N1125       N  0.33770517  0.66623161  0.08388124    -0.78500
C1126       C  0.36492612  0.52240449  0.90785439     0.04400
C1127       C  0.33770154  0.99578835  0.90887778    -0.11800
C1128       C  0.33527104  0.97294204  0.91948927     0.01900
C1129       C  0.35923356  0.97627163  0.92929908    -0.10300
C1130       C  0.38667047  0.50237210  0.92809853     0.04300
C1131       C  0.38902474  0.52539927  0.91756681    -0.09700
H1132       H  0.31914536  0.99306297  0.90118119     0.09900
H1133       H  0.35728241  0.95851114  0.93747734     0.07500
H1134       H  0.40949579  0.54551419  0.91691298     0.07300
C1135       C  0.17941266  0.65230040  0.92770048     0.04400
C1136       C  0.18108200  0.67954829  0.92822768    -0.11800
C1137       C  0.20182690  0.70272002  0.91799259     0.01900
C1138       C  0.22145148  0.69873748  0.90733136    -0.10300
C1139       C  0.22046374  0.67179132  0.90679669     0.04300
C1140       C  0.19917106  0.64851876  0.91686440    -0.09700
H1141       H  0.16617188  0.68276065  0.93664997     0.09900
H1142       H  0.23774282  0.71673755  0.89958780     0.07500
H1143       H  0.19826916  0.62768081  0.91647972     0.07300
C1144       C  0.22757595  0.86330714  0.92182732     0.81400
N1145       N  0.22759356  0.83770815  0.92189667    -0.76900
C1146       C  0.20222495  0.81221101  0.92101090     0.83900
N1147       N  0.17671252  0.81233461  0.92000919    -0.76800
C1148       C  0.17643670  0.83781660  0.92012105     0.84000
N1149       N  0.20194904  0.86322052  0.92097473    -0.78500
C1150       C  0.01799668  0.81857724  0.90448129     0.04400
C1151       C  0.04427542  0.81820289  0.90499805    -0.11800
C1152       C  0.06733817  0.83821671  0.91568028     0.01900
C1153       C  0.06404992  0.85851922  0.92601556    -0.10300
C1154       C  0.03810456  0.85953852  0.92546848     0.04300
C1155       C  0.01509633  0.83951543  0.91456832    -0.09700
H1156       H  0.04666391  0.80215581  0.89723176     0.09900
H1157       H  0.08177439  0.87357071  0.93454129     0.07500
H1158       H  0.49491826  0.83997947  0.91409827     0.07300
Zn1159     Zn  0.03504536  0.50373485  0.97478377     1.49700
Zn1160     Zn  0.06945422  0.53632585  0.01029594     1.49400
Zn1161     Zn  0.49929589  0.50302377  0.00986860     1.49100
Zn1162     Zn  0.03200588  0.96664557  0.00967413     1.49500
O1163       O  0.03404492  0.50242891  0.00116956    -1.82900
O1164       O  0.07063681  0.53922136  0.96542247    -0.73500
O1165       O  0.05907864  0.56140912  0.02552239    -0.73300
O1166       O  0.47578609  0.50507056  0.98908635    -0.72900
O1167       O  0.09545805  0.56179470  0.99001052    -0.73500
O1168       O  0.00045309  0.50511795  0.96487766    -0.73100
O1169       O  0.01076064  0.53790271  0.02576446    -0.73700
O1170       O  0.49558451  0.94179614  0.02399903    -0.73100
O1171       O  0.09214230  0.52362564  0.02611041    -0.73900
O1172       O  0.47234160  0.96702597  0.02442323    -0.73300
O1173       O  0.06593186  0.97573270  0.02602444    -0.73700
O1174       O  0.03256619  0.94258184  0.98860198    -0.73600
O1175       O  0.03390610  0.96825182  0.96463365    -0.73400
C1176       C  0.09259035  0.56027622  0.97291051     0.78400
C1177       C  0.03509335  0.55920509  0.03053832     0.78900
C1178       C  0.47883945  0.50556443  0.97203152     0.77800
C1179       C  0.47411826  0.94476073  0.02872954     0.78200
C1180       C  0.08770399  0.99930298  0.03138513     0.79300
C1181       C  0.03324724  0.94602530  0.97158000     0.78400
C1182       C  0.36898764  0.81746539  0.76037345     0.04400
C1183       C  0.39529132  0.84373579  0.76133526    -0.11800
C1184       C  0.39941613  0.86764245  0.75114324     0.01900
C1185       C  0.37705438  0.86525869  0.73993561    -0.10300
C1186       C  0.35063963  0.83904182  0.73885058     0.04300
C1187       C  0.34669796  0.81515987  0.74909621    -0.09700
H1188       H  0.41256261  0.84551797  0.76994299     0.09900
H1189       H  0.38017022  0.88370939  0.73210000     0.07500
H1190       H  0.32627385  0.79481242  0.74832253     0.07300
C1191       C  0.21949834  0.52061240  0.76146904     0.04400
C1192       C  0.19299476  0.52037160  0.76265855    -0.11800
C1193       C  0.16834565  0.49891071  0.75381998     0.01900
C1194       C  0.16984566  0.97758235  0.74324459    -0.10300
C1195       C  0.19619038  0.97746188  0.74200857     0.04300
C1196       C  0.22120951  0.49907454  0.75130978    -0.09700
H1197       H  0.19158129  0.53700234  0.77041048     0.09900
H1198       H  0.15088408  0.96129206  0.73611743     0.07500
H1199       H  0.24167576  0.49926136  0.75026005     0.07300
C1200       C  0.05723267  0.68668380  0.74071804     0.04400
C1201       C  0.05732169  0.66028608  0.74142965    -0.11800
C1202       C  0.03736890  0.63760293  0.75228571     0.01900
C1203       C  0.01703401  0.64120257  0.76239062    -0.10300
C1204       C  0.01645004  0.66729701  0.76166903     0.04300
C1205       C  0.03664412  0.69008897  0.75085970    -0.09700
H1206       H  0.07295064  0.65740696  0.73354665     0.09900
H1207       H  0.50142153  0.62355084  0.77067200     0.07500
H1208       H  0.03632644  0.71032397  0.75033544     0.07300
C1209       C  0.00887360  0.97610923  0.75461706     0.81400
N1210       N  0.03447253  0.97605500  0.75509499    -0.76900
C1211       C  0.06039162  0.50137101  0.75564120     0.83900
N1212       N  0.06034394  0.52690947  0.75529082    -0.76800
C1213       C  0.03491382  0.52722087  0.75481381     0.84000
N1214       N  0.00937580  0.50174196  0.75451788    -0.78500
Zn1215     Zn  0.40199509  0.70462865  0.82364739     1.49700
Zn1216     Zn  0.36835229  0.67046870  0.85932194     1.49400
Zn1217     Zn  0.33196934  0.66844004  0.82434976     1.49100
Zn1218     Zn  0.36892672  0.63511563  0.82413678     1.49500
O1219       O  0.36777492  0.66965627  0.83283349    -1.82900
O1220       O  0.42680528  0.73032282  0.84410766    -0.73500
O1221       O  0.33189136  0.66860730  0.86947203    -0.73300
O1222       O  0.34141158  0.70411944  0.80960308    -0.72900
O1223       O  0.40316331  0.70719402  0.86875493    -0.73500
O1224       O  0.38969566  0.72800745  0.80809389    -0.73100
O1225       O  0.30658757  0.66714944  0.84534874    -0.73700
O1226       O  0.33382816  0.60979262  0.80885343    -0.73100
O1227       O  0.37014459  0.63587871  0.86920895    -0.73900
O1228       O  0.30847056  0.63292125  0.80854783    -0.73300
O1229       O  0.36888886  0.61054861  0.84501089    -0.73700
O1230       O  0.40473843  0.64625077  0.80885915    -0.73600
O1231       O  0.42780536  0.69448948  0.80874747    -0.73400
C1232       C  0.42462661  0.72869296  0.86122594     0.78400
C1233       C  0.30942946  0.66746155  0.86243191     0.78900
C1234       C  0.36514889  0.72540705  0.80406976     0.77800
C1235       C  0.31185863  0.61164237  0.80381359     0.78200
C1236       C  0.36954216  0.61367870  0.86208206     0.79300
C1237       C  0.42603800  0.67054310  0.80407820     0.78400
C1238       C  0.18107583  0.64376493  0.57234776     0.04400
C1239       C  0.17679474  0.66446259  0.58172245    -0.11800
C1240       C  0.19933441  0.68606274  0.59213766     0.01900
C1241       C  0.22612812  0.68680987  0.59309786    -0.10300
C1242       C  0.23047765  0.66621969  0.58384316     0.04300
C1243       C  0.20792664  0.64471174  0.57353648    -0.09700
H1244       H  0.15615623  0.66392837  0.58077359     0.09900
H1245       H  0.24364533  0.70348167  0.60103543     0.07500
H1246       H  0.21141326  0.62896307  0.56622308     0.07300
C1247       C  0.02846489  0.85611968  0.57693425     0.04400
C1248       C  0.00185414  0.83009600  0.57744491    -0.11800
C1249       C  0.99859305  0.80699817  0.58812751     0.01900
C1250       C  0.02201075  0.80986979  0.59834879    -0.10300
C1251       C  0.04892067  0.83549000  0.59766439     0.04300
C1252       C  0.05199259  0.85871378  0.58707173    -0.09700
H1253       H  0.48380418  0.82765810  0.56931540     0.09900
H1254       H  0.01954926  0.79179597  0.60641170     0.07500
H1255       H  0.07273804  0.87854709  0.58648692     0.07300
C1256       C  0.34700678  0.98499048  0.59376810     0.04400
C1257       C  0.34729022  0.51139462  0.59399045    -0.11800
C1258       C  0.36825575  0.53511353  0.58419851     0.01900
C1259       C  0.38893643  0.53215074  0.57405682    -0.10300
C1260       C  0.38918001  0.00587649  0.57380849     0.04300
C1261       C  0.36801280  0.98224302  0.58366814    -0.09700
H1262       H  0.33125648  0.51370021  0.60181252     0.09900
H1263       H  0.40489073  0.55039781  0.56631320     0.07500
H1264       H  0.36773590  0.96170237  0.58335024     0.07300
C1265       C  0.39261323  0.69597760  0.58631621     0.81400
N1266       N  0.39335017  0.67076439  0.58547142    -0.76900
C1267       C  0.36829046  0.64483422  0.58507243     0.83900
N1268       N  0.34246698  0.64445917  0.58528997    -0.76800
C1269       C  0.34150527  0.66955581  0.58588909     0.84000
N1270       N  0.36667861  0.69525815  0.58651298    -0.78500
Zn1271     Zn  0.23426899  0.83301845  0.65550298     1.49700
Zn1272     Zn  0.20117496  0.86988407  0.65730551     1.49400
Zn1273     Zn  0.16440688  0.80014663  0.65708189     1.49100
Zn1274     Zn  0.20128177  0.83387242  0.69172487     1.49500
O1275       O  0.20036700  0.83423971  0.66532222    -1.82900
O1276       O  0.25869830  0.86819956  0.63989308    -0.73500
O1277       O  0.16584400  0.86055291  0.64240747    -0.73300
O1278       O  0.17291121  0.77460673  0.64086883    -0.72900
O1279       O  0.23666860  0.89446749  0.64195591    -0.73500
O1280       O  0.22113981  0.79675182  0.64004491    -0.73100
O1281       O  0.13982906  0.81244381  0.64303647    -0.73700
O1282       O  0.16607671  0.79899268  0.70199354    -0.73100
O1283       O  0.20092544  0.89380548  0.67860726    -0.73900
O1284       O  0.14043497  0.77533615  0.67794474    -0.73300
O1285       O  0.20210158  0.86936417  0.70241689    -0.73700
O1286       O  0.23681510  0.83317706  0.70044328    -0.73600
O1287       O  0.26067810  0.83381749  0.67577002    -0.73400
C1288       C  0.25725790  0.89084700  0.63605147     0.78400
C1289       C  0.14323334  0.83691259  0.63813054     0.78900
C1290       C  0.19630899  0.77589749  0.63542549     0.77800
C1291       C  0.14381694  0.77762146  0.69498473     0.78200
C1292       C  0.20139298  0.89101058  0.69564113     0.79300
C1293       C  0.25875559  0.83387171  0.69292386     0.78400
C1294       C  0.38061028  0.85203027  0.42648278     0.04400
C1295       C  0.35479558  0.85325601  0.42537776    -0.11800
C1296       C  0.33173849  0.83346001  0.41453332     0.01900
C1297       C  0.33484603  0.81271849  0.40450892    -0.10300
C1298       C  0.36033167  0.81089848  0.40563142     0.04300
C1299       C  0.38310684  0.83053694  0.41680583    -0.09700
H1300       H  0.35265926  0.86961375  0.43295462     0.09900
H1301       H  0.31718277  0.79770585  0.39593318     0.07500
H1302       H  0.40286980  0.82935365  0.41780504     0.07300
C1303       C  0.01202567  0.66741120  0.40635110     0.04400
C1304       C  0.00804667  0.64327679  0.41634310    -0.11800
C1305       C  0.03054432  0.64532308  0.42732691     0.01900
C1306       C  0.05693157  0.67142474  0.42825700    -0.10300
C1307       C  0.06100372  0.69540778  0.41824834     0.04300
C1308       C  0.03853898  0.69339843  0.40736379    -0.09700
H1309       H  0.48767456  0.62307706  0.41553697     0.09900
H1310       H  0.07448837  0.67288589  0.43648131     0.07500
H1311       H  0.04181873  0.71195366  0.39949092     0.07300
C1312       C  0.21693281  0.51415340  0.40272659     0.04400
C1313       C  0.19644166  0.51740785  0.41310102    -0.11800
C1314       C  0.17420461  0.49357333  0.42225468     0.01900
C1315       C  0.17266195  0.96640206  0.42125000    -0.10300
C1316       C  0.19289040  0.96280672  0.41103489     0.04300
C1317       C  0.21479180  0.98645909  0.40171337    -0.09700
H1318       H  0.19771761  0.53839415  0.41397798     0.09900
H1319       H  0.15592883  0.94812375  0.42858248     0.07500
H1320       H  0.23035283  0.98356405  0.39376791     0.07300
C1321       C  0.16980557  0.80310621  0.41363393     0.81400
N1322       N  0.19597841  0.80427420  0.41355372    -0.76900
C1323       C  0.22079625  0.83006451  0.41172029     0.83900
N1324       N  0.21943893  0.85482936  0.41018826    -0.76800
C1325       C  0.19337400  0.85388901  0.41030890     0.84000
N1326       N  0.16858265  0.82800614  0.41207236    -0.78500
Zn1327     Zn  0.03180087  0.96322937  0.49018732     1.49700
Zn1328     Zn  0.03269906  0.50071777  0.52469219     1.49400
Zn1329     Zn  0.06599076  0.53286934  0.48901995     1.49100
Zn1330     Zn  0.49592686  0.49695588  0.48999257     1.49500
O1331       O  0.03167616  0.49828365  0.49838189    -1.82900
O1332       O  0.03334151  0.94036376  0.51175098    -0.73500
O1333       O  0.06819565  0.53627419  0.53389734    -0.73300
O1334       O  0.08968001  0.52169824  0.47303744    -0.72900
O1335       O  0.03363823  0.96675462  0.53517549    -0.73500
O1336       O  0.06666717  0.97381095  0.47395586    -0.73100
O1337       O  0.09271152  0.55799391  0.50920535    -0.73700
O1338       O  0.00535005  0.53178992  0.47484090    -0.73100
O1339       O  0.49744270  0.50067217  0.53476426    -0.73900
O1340       O  0.05367323  0.55677669  0.47408733    -0.73300
O1341       O  0.47118630  0.49728760  0.51072415    -0.73700
O1342       O  0.47167892  0.96175475  0.47475097    -0.73600
O1343       O  0.49534925  0.93696443  0.47564425    -0.73400
C1344       C  0.03366198  0.94453215  0.52873152     0.78400
C1345       C  0.09049626  0.55663116  0.52633497     0.78900
C1346       C  0.08752535  0.49756165  0.46844907     0.77800
C1347       C  0.02899667  0.55353988  0.46971705     0.78200
C1348       C  0.47486779  0.49919060  0.52774130     0.79300
C1349       C  0.47390994  0.93967977  0.47041728     0.78400
C1350       C  0.36466443  0.51716469  0.26141840     0.04400
C1351       C  0.39100724  0.51701729  0.26209578    -0.11800
C1352       C  0.39449853  0.49632006  0.25238264     0.01900
C1353       C  0.37119092  0.97529559  0.24287192    -0.10300
C1354       C  0.34462084  0.97499288  0.24205402     0.04300
C1355       C  0.34155341  0.49615034  0.25113900    -0.09700
H1356       H  0.40892314  0.53325944  0.26999764     0.09900
H1357       H  0.37419418  0.95950252  0.23523571     0.07500
H1358       H  0.32118652  0.49623586  0.25057173     0.07300
C1359       C  0.21262461  0.66276622  0.26117652     0.04400
C1360       C  0.21514449  0.68570542  0.25049010    -0.11800
C1361       C  0.19117825  0.68273385  0.24066317     0.01900
C1362       C  0.16468751  0.65663870  0.24152112    -0.10300
C1363       C  0.16202313  0.63358269  0.25207601     0.04300
C1364       C  0.18595500  0.63684095  0.26196563    -0.09700
H1365       H  0.23571263  0.70569395  0.24971454     0.09900
H1366       H  0.14626497  0.65412594  0.23377216     0.07500
H1367       H  0.18397332  0.61896924  0.27004026     0.07300
C1368       C  0.01310903  0.81423416  0.26073975     0.04400
C1369       C  0.01259413  0.84039891  0.26121735    -0.11800
C1370       C  0.03323039  0.86457462  0.25166511     0.01900
C1371       C  0.05459154  0.86259758  0.24159937    -0.10300
C1372       C  0.05534000  0.83654799  0.24106312     0.04300
C1373       C  0.03458640  0.81237918  0.25066989    -0.09700
H1374       H  0.49596262  0.84187146  0.26891382     0.09900
H1375       H  0.07042070  0.88119699  0.23406365     0.07500
H1376       H  0.03492923  0.79214760  0.25013040     0.07300
C1377       C  0.05513513  0.52311954  0.25196879     0.81400
N1378       N  0.05500058  0.99748460  0.25217067    -0.76900
C1379       C  0.02959424  0.97192244  0.25232073     0.83900
N1380       N  0.00400550  0.97197022  0.25279740    -0.76800
C1381       C  0.00405479  0.49717082  0.25244398     0.84000
N1382       N  0.02938465  0.52275711  0.25237535    -0.78500
Zn1383     Zn  0.19924748  0.86661106  0.17614137     1.49700
Zn1384     Zn  0.16384037  0.79768305  0.17469908     1.49400
Zn1385     Zn  0.19898687  0.83302326  0.14008615     1.49100
Zn1386     Zn  0.23375433  0.83117163  0.17489207     1.49500
O1387       O  0.19909594  0.83211208  0.16649344    -1.82900
O1388       O  0.16471386  0.85607193  0.19215820    -0.73500
O1389       O  0.13912964  0.77443871  0.15372522    -0.73300
O1390       O  0.19786179  0.86819657  0.13121633    -0.72900
O1391       O  0.13892461  0.80803085  0.19009678    -0.73500
O1392       O  0.19822429  0.89155674  0.15620658    -0.73100
O1393       O  0.16420521  0.79803848  0.12962824    -0.73700
O1394       O  0.25842831  0.83172200  0.15376038    -0.73100
O1395       O  0.17400046  0.77235229  0.18968688    -0.73900
O1396       O  0.23447965  0.83383173  0.12977929    -0.73300
O1397       O  0.22230370  0.79491885  0.18963445    -0.73700
O1398       O  0.25857257  0.86613078  0.19073627    -0.73600
O1399       O  0.23498214  0.89102365  0.19082511    -0.73400
C1400       C  0.14240433  0.83204608  0.19607671     0.78400
C1401       C  0.14194453  0.77688007  0.13667572     0.78900
C1402       C  0.19772026  0.88948324  0.13910031     0.77800
C1403       C  0.25591949  0.83288895  0.13673374     0.78200
C1404       C  0.19780658  0.77395072  0.19449383     0.79300
C1405       C  0.25632079  0.88799093  0.19565829     0.78400
Zn1406     Zn  0.36540054  0.70124460  0.32276920     1.49700
Zn1407     Zn  0.39884261  0.66489145  0.32309800     1.49400
Zn1408     Zn  0.36422698  0.66517576  0.35831747     1.49100
Zn1409     Zn  0.32895699  0.63186986  0.32326584     1.49500
O1410       O  0.36440191  0.66597959  0.33185806    -1.82900
O1411       O  0.40111021  0.72473664  0.30706947    -0.73500
O1412       O  0.42394026  0.66502018  0.34358079    -0.73300
O1413       O  0.36444795  0.70082778  0.36811255    -0.72900
O1414       O  0.42431196  0.69949768  0.30772237    -0.73500
O1415       O  0.36651369  0.72639024  0.34385450    -0.73100
O1416       O  0.39958215  0.66462234  0.36793479    -0.73700
O1417       O  0.30434452  0.60688416  0.34372621    -0.73100
O1418       O  0.38690858  0.62907214  0.30807959    -0.73900
O1419       O  0.32888270  0.62967239  0.36833568    -0.73300
O1420       O  0.33866731  0.60681997  0.30789163    -0.73700
O1421       O  0.30436318  0.64297455  0.30832663    -0.73600
O1422       O  0.32935408  0.69113054  0.30777099    -0.73400
C1423       C  0.42248392  0.72135643  0.30254322     0.78400
C1424       C  0.42147719  0.66485482  0.36065922     0.78900
C1425       C  0.36554989  0.72312657  0.36092516     0.77800
C1426       C  0.30703381  0.60853132  0.36080021     0.78200
C1427       C  0.36238305  0.60820211  0.30318045     0.79300
C1428       C  0.30720661  0.66713379  0.30327829     0.78400
C1429       C  0.03201046  0.89191865  0.25191484    -0.04100
C1430       C  0.01903327  0.89856495  0.23747522    -0.01200
C1431       C  0.01778301  0.92452168  0.23771293     0.03800
C1432       C  0.02989891  0.94414340  0.25228622    -0.04100
C1433       C  0.04256591  0.93729060  0.26682621    -0.01200
C1434       C  0.04342999  0.91114525  0.26669569     0.03800
C1435       C  0.00675536  0.87849139  0.22245746     0.38400
C1436       C  0.05400953  0.95682126  0.28215763     0.38400
C1437       C  0.05601075  0.90393614  0.28178498     0.36800
C1438       C  0.00452780  0.93129093  0.22279767     0.36800
N1439       N  0.06592424  0.89807454  0.29384035    -0.38000
N1440       N  0.99390038  0.93667179  0.21091786    -0.38000
N1441       N  0.06304874  0.97245282  0.29436665    -0.37400
N1442       N  0.99699165  0.86238316  0.21052268    -0.37400
C1443       C  0.49050444  0.78867035  0.27061964    -0.04100
C1444       C  0.46168185  0.77400368  0.26416526    -0.01200
C1445       C  0.43953588  0.75158285  0.27439995     0.03800
C1446       C  0.44607937  0.74361904  0.29116315    -0.04100
C1447       C  0.47527586  0.75721220  0.29709745    -0.01200
C1448       C  0.49736002  0.77983021  0.28692054     0.03800
C1449       C  0.45495711  0.78187239  0.24685110     0.38400
C1450       C  0.48255864  0.74853516  0.31393815     0.38400
C1451       C  0.02703222  0.79467224  0.29348175     0.36800
C1452       C  0.41018941  0.73597680  0.26735923     0.36800
N1453       N  0.05072500  0.80659755  0.29866770    -0.38000
N1454       N  0.38682298  0.72336428  0.26167733    -0.38000
N1455       N  0.48840548  0.74151325  0.32732044    -0.37400
N1456       N  0.44979068  0.78821066  0.23300180    -0.37400
C1457       C  0.07736776  0.83438610  0.22979844    -0.04100
C1458       C  0.07057116  0.82396442  0.21192255    -0.01200
C1459       C  0.09168882  0.82265643  0.20098393     0.03800
C1460       C  0.11983102  0.83212541  0.20781412    -0.04100
C1461       C  0.12653805  0.84225578  0.22575967    -0.01200
C1462       C  0.10533815  0.84337319  0.23673099     0.03800
C1463       C  0.04198174  0.81518158  0.20469483     0.38400
C1464       C  0.15506852  0.85085349  0.23303749     0.38400
C1465       C  0.11226911  0.85380845  0.25515197     0.36800
C1466       C  0.08473365  0.81237888  0.18251956     0.36800
N1467       N  0.11779099  0.86213603  0.26985308    -0.38000
N1468       N  0.07924498  0.80418722  0.16778877    -0.38000
N1469       N  0.17782564  0.85756018  0.23877680    -0.37400
N1470       N  0.01917745  0.80828883  0.19896907    -0.37400
C1471       C  0.08261120  0.55115584  0.25206809    -0.04100
C1472       C  0.10052386  0.56025863  0.23665076    -0.01200
C1473       C  0.12631952  0.58734111  0.23661903     0.03800
C1474       C  0.13449871  0.60533112  0.25207806    -0.04100
C1475       C  0.11673115  0.59602232  0.26758473    -0.01200
C1476       C  0.09075644  0.56908049  0.26753095     0.03800
C1477       C  0.09215302  0.54193928  0.22071235     0.38400
C1478       C  0.12507973  0.61426275  0.28355297     0.38400
C1479       C  0.07264934  0.55944697  0.28351949     0.36800
C1480       C  0.14475972  0.59654813  0.22077236     0.36800
N1481       N  0.05812352  0.55160011  0.29623034    -0.38000
N1482       N  0.15955495  0.60404062  0.20817308    -0.38000
N1483       N  0.13176581  0.62876116  0.29632013    -0.37400
N1484       N  0.08546166  0.52729565  0.20801036    -0.37400
C1485       C  0.19378568  0.70675661  0.22909161    -0.04100
C1486       C  0.20906639  0.71306142  0.21260772    -0.01200
C1487       C  0.21054206  0.73509925  0.20129076     0.03800
C1488       C  0.19679867  0.75103710  0.20642084    -0.04100
C1489       C  0.18167290  0.74481958  0.22298400    -0.01200
C1490       C  0.18014444  0.72274539  0.23424676     0.03800
C1491       C  0.22253606  0.69623164  0.20706062     0.38400
C1492       C  0.16821919  0.76163229  0.22865759     0.38400
C1493       C  0.16476739  0.71665646  0.25127721     0.36800
C1494       C  0.22508158  0.74046468  0.18399415     0.36800
N1495       N  0.15249650  0.71176790  0.26486128    -0.38000
N1496       N  0.23653929  0.74465440  0.17015012    -0.38000
N1497       N  0.15755135  0.77511517  0.23312570    -0.37400
N1498       N  0.23322487  0.68272887  0.20268763    -0.37400
C1499       C  0.23805025  0.66531645  0.27129899    -0.04100
C1500       C  0.24933254  0.68418151  0.28627853    -0.01200
C1501       C  0.27196307  0.68486685  0.29668782     0.03800
C1502       C  0.28394664  0.66710993  0.29198418    -0.04100
C1503       C  0.27294817  0.64861264  0.27675086    -0.01200
C1504       C  0.25013601  0.64774780  0.26648103     0.03800
C1505       C  0.23701239  0.70226481  0.29132251     0.38400
C1506       C  0.28529805  0.63065068  0.27143179     0.38400
C1507       C  0.23925994  0.62898755  0.25075535     0.36800
C1508       C  0.28164180  0.70253613  0.31290181     0.36800
N1509       N  0.23047158  0.61407152  0.23821027    -0.38000
N1510       N  0.28923075  0.71640633  0.32592949    -0.38000
N1511       N  0.29504749  0.61624662  0.26717606    -0.37400
N1512       N  0.22722418  0.71675475  0.29527618    -0.37400
C1513       C  0.47605908  0.49706164  0.25255844    -0.04100
C1514       C  0.45586630  0.98388834  0.26759048    -0.01200
C1515       C  0.42925513  0.98386010  0.26772601     0.03800
C1516       C  0.42272224  0.49694482  0.25262169    -0.04100
C1517       C  0.44272576  0.51050481  0.23849878    -0.01200
C1518       C  0.46934664  0.51059369  0.23846154     0.03800
C1519       C  0.46298336  0.97058016  0.28229604     0.38400
C1520       C  0.43598409  0.52467756  0.22412387     0.38400
C1521       C  0.48955891  0.52406593  0.22368948     0.36800
C1522       C  0.40899168  0.97051318  0.28248842     0.36800
N1523       N  0.00573089  0.53481109  0.21192939    -0.38000
N1524       N  0.39281902  0.96007657  0.29428253    -0.38000
N1525       N  0.43056098  0.53603774  0.21271931    -0.37400
N1526       N  0.46868468  0.96000600  0.29404354    -0.37400
C1527       C  0.32085810  0.95300129  0.23065990    -0.04100
C1528       C  0.31310224  0.96130377  0.21446917    -0.01200
C1529       C  0.29222422  0.94005129  0.20291339     0.03800
C1530       C  0.27879161  0.91035920  0.20757456    -0.04100
C1531       C  0.28609779  0.90219346  0.22401253    -0.01200
C1532       C  0.30697113  0.92346612  0.23553683     0.03800
C1533       C  0.32698491  0.99171620  0.20957403     0.38400
C1534       C  0.27147045  0.87196770  0.22937087     0.38400
C1535       C  0.31363893  0.91510484  0.25270252     0.36800
C1536       C  0.28540627  0.94871781  0.18590333     0.36800
N1537       N  0.31892039  0.90857896  0.26645216    -0.38000
N1538       N  0.28006521  0.95566315  0.17231843    -0.38000
N1539       N  0.25974969  0.84785125  0.23362538    -0.37400
N1540       N  0.33566481  0.51608929  0.20602207    -0.37400
C1541       C  0.36139376  0.58472234  0.29182538    -0.04100
C1542       C  0.37853125  0.59155289  0.27608145    -0.01200
C1543       C  0.37865987  0.56927900  0.26576688     0.03800
C1544       C  0.36192376  0.54009653  0.27122163    -0.04100
C1545       C  0.34394226  0.53313535  0.28655751    -0.01200
C1546       C  0.34358976  0.55538213  0.29681788     0.03800
C1547       C  0.39555547  0.62145878  0.27024390     0.38400
C1548       C  0.32654517  0.50315499  0.29213442     0.38400
C1549       C  0.32582789  0.54809149  0.31295104     0.36800
C1550       C  0.39575746  0.57631459  0.24936755     0.36800
N1551       N  0.31167178  0.54236739  0.32580764    -0.38000
N1552       N  0.40929975  0.58182877  0.23625869    -0.38000
N1553       N  0.31058191  0.97922665  0.29675974    -0.37400
N1554       N  0.40909400  0.64530942  0.26560116    -0.37400
C1555       C  0.19208839  0.93445039  0.41090991    -0.04100
C1556       C  0.20472921  0.92726861  0.42527001    -0.01200
C1557       C  0.20492939  0.90082621  0.42503801     0.03800
C1558       C  0.19235619  0.88129309  0.41047492    -0.04100
C1559       C  0.17912560  0.88816726  0.39626654    -0.01200
C1560       C  0.17897279  0.91472464  0.39650380     0.03800
C1561       C  0.21758531  0.94719227  0.44030169     0.38400
C1562       C  0.16650090  0.86837098  0.38116207     0.38400
C1563       C  0.16517251  0.92174924  0.38203286     0.36800
C1564       C  0.21765756  0.89343869  0.43997873     0.36800
N1565       N  0.15409949  0.92741042  0.37055133    -0.38000
N1566       N  0.22776723  0.88738258  0.45183414    -0.38000
N1567       N  0.15651535  0.85265292  0.36906218    -0.37400
N1568       N  0.22773988  0.96308827  0.45229955    -0.37400
C1569       C  0.24014577  0.53916157  0.39256327    -0.04100
C1570       C  0.26981036  0.54923323  0.39626325    -0.01200
C1571       C  0.29167448  0.57205455  0.38605002     0.03800
C1572       C  0.28411153  0.58514246  0.37206083    -0.04100
C1573       C  0.25442490  0.57514498  0.36847408    -0.01200
C1574       C  0.23261881  0.55227480  0.37862661     0.03800
C1575       C  0.27790314  0.53612095  0.41062035     0.38400
C1576       C  0.24615708  0.58861907  0.35444142     0.38400
C1577       C  0.20230375  0.54157176  0.37430620     0.36800
C1578       C  0.32194444  0.58112241  0.38944672     0.36800
N1579       N  0.17795511  0.03235268  0.37078013    -0.38000
N1580       N  0.34607776  0.58828630  0.39210714    -0.38000
N1581       N  0.23956055  0.59932031  0.34322510    -0.37400
N1582       N  0.28436125  0.52558040  0.42201339    -0.37400
C1583       C  0.10982996  0.49760624  0.45620739    -0.04100
C1584       C  0.10130055  0.98111423  0.44009398    -0.01200
C1585       C  0.12242365  0.98063286  0.42869289     0.03800
C1586       C  0.15229834  0.49659225  0.43331578    -0.04100
C1587       C  0.16080266  0.51390028  0.44908121    -0.01200
C1588       C  0.13967920  0.51445169  0.46045838     0.03800
C1589       C  0.07087150  0.96492249  0.43509601     0.38400
C1590       C  0.19127130  0.53048765  0.45391136     0.38400
C1591       C  0.14867075  0.53150019  0.47694236     0.36800
C1592       C  0.11356185  0.96407842  0.41202044     0.36800
N1593       N  0.15582314  0.54507796  0.49009567    -0.38000
N1594       N  0.10656745  0.95096773  0.39868892    -0.38000
N1595       N  0.21559687  0.54378793  0.45770081    -0.37400
N1596       N  0.04659592  0.95207436  0.43112187    -0.37400
C1597       C  0.14273244  0.77483283  0.41565317    -0.04100
C1598       C  0.13688761  0.75157675  0.40383296    -0.01200
C1599       C  0.11040150  0.72533512  0.40506417     0.03800
C1600       C  0.08964237  0.72217346  0.41806904    -0.04100
C1601       C  0.09600494  0.74467841  0.43052362    -0.01200
C1602       C  0.12253177  0.77097638  0.42934844     0.03800
C1603       C  0.15771702  0.75480105  0.39005705     0.38400
C1604       C  0.07530968  0.74059443  0.44460454     0.38400
C1605       C  0.12948232  0.79363761  0.44263247     0.36800
C1606       C  0.10433213  0.70148025  0.39290589     0.36800
N1607       N  0.13515394  0.81165903  0.45329112    -0.38000
N1608       N  0.09937035  0.68231676  0.38331242    -0.38000
N1609       N  0.05882116  0.73720020  0.45588002    -0.37400
N1610       N  0.17435275  0.75728000  0.37910448    -0.37400
C1611       C  0.48842148  0.66589451  0.39483108    -0.04100
C1612       C  0.48296191  0.65271846  0.37767099    -0.01200
C1613       C  0.46075956  0.65170879  0.36665112     0.03800
C1614       C  0.44468736  0.66522100  0.37237462    -0.04100
C1615       C  0.45119945  0.67942287  0.38940381    -0.01200
C1616       C  0.47242019  0.67909130  0.40068514     0.03800
C1617       C  0.00090543  0.64101480  0.37113305     0.38400
C1618       C  0.43723711  0.69572919  0.39512520     0.38400
C1619       C  0.47800842  0.69254253  0.41839852     0.36800
C1620       C  0.45429599  0.63617459  0.34961507     0.36800
N1621       N  0.48250660  0.70315643  0.43255185    -0.38000
N1622       N  0.44919331  0.62372699  0.33605172    -0.38000
N1623       N  0.42628064  0.70890823  0.39966765    -0.37400
N1624       N  0.01546558  0.63200792  0.36587144    -0.37400
C1625       C  0.02737024  0.61995330  0.43750327    -0.04100
C1626       C  0.01542795  0.61429886  0.45500778    -0.01200
C1627       C  0.01526747  0.59201675  0.46539208     0.03800
C1628       C  0.02769894  0.57580252  0.45844799    -0.04100
C1629       C  0.03903834  0.58104727  0.44077564    -0.01200
C1630       C  0.03865660  0.60293304  0.43027918     0.03800
C1631       C  0.00418163  0.63205202  0.46251901     0.38400
C1632       C  0.05071400  0.56363063  0.43330751     0.38400
C1633       C  0.05009142  0.60818709  0.41206408     0.36800
C1634       C  0.00325584  0.58644770  0.48347178     0.36800
N1635       N  0.05909950  0.61240380  0.39750712    -0.38000
N1636       N  0.99365847  0.58189088  0.49788627    -0.38000
N1637       N  0.05998218  0.54969232  0.42736030    -0.37400
N1638       N  0.99532854  0.64631110  0.46852398    -0.37400
C1639       C  0.30379427  0.83373260  0.41395037    -0.04100
C1640       C  0.28573554  0.82569085  0.42933852    -0.01200
C1641       C  0.25851816  0.82434441  0.42853922     0.03800
C1642       C  0.24931517  0.83137184  0.41243340    -0.04100
C1643       C  0.26743241  0.83975383  0.39711171    -0.01200
C1644       C  0.29451439  0.84074716  0.39782191     0.03800
C1645       C  0.29486677  0.81815093  0.44590954     0.38400
C1646       C  0.25782092  0.84660001  0.38047348     0.38400
C1647       C  0.31290746  0.84911463  0.38196699     0.36800
C1648       C  0.24005477  0.81604349  0.44437518     0.36800
N1649       N  0.32755557  0.85568203  0.36930735    -0.38000
N1650       N  0.22521699  0.80940186  0.45694956    -0.38000
N1651       N  0.25006287  0.85200321  0.36721799    -0.37400
N1652       N  0.30220602  0.81221680  0.45913688    -0.37400
C1653       C  0.36287145  0.78833178  0.39489804    -0.04100
C1654       C  0.34218676  0.75862534  0.39707265    -0.01200
C1655       C  0.34318973  0.73741111  0.38603255     0.03800
C1656       C  0.36507414  0.74556463  0.37281006    -0.04100
C1657       C  0.38627651  0.77511787  0.37098036    -0.01200
C1658       C  0.38511368  0.79641630  0.38190021     0.03800
C1659       C  0.31989246  0.74974053  0.41081516     0.38400
C1660       C  0.40980913  0.78358256  0.35817900     0.38400
C1661       C  0.40645843  0.82675356  0.37940421     0.36800
C1662       C  0.32101060  0.70719490  0.38791437     0.36800
N1663       N  0.42353766  0.85095590  0.37749948    -0.38000
N1664       N  0.30334811  0.68309724  0.38938065    -0.38000
N1665       N  0.42866120  0.79031876  0.34803450    -0.37400
N1666       N  0.30204710  0.74267036  0.42172153    -0.37400
C1667       C  0.45096498  0.91680644  0.45884004    -0.04100
C1668       C  0.44370296  0.92433343  0.44213767    -0.01200
C1669       C  0.42124142  0.90298676  0.43141303     0.03800
C1670       C  0.40539588  0.87402128  0.43741599    -0.04100
C1671       C  0.41288017  0.86633397  0.45394893    -0.01200
C1672       C  0.43571868  0.88758965  0.46456380     0.03800
C1673       C  0.45979346  0.95399769  0.43575551     0.38400
C1674       C  0.39651409  0.83666650  0.46025629     0.38400
C1675       C  0.44274917  0.87956836  0.48171784     0.36800
C1676       C  0.41476097  0.91066754  0.41396025     0.36800
N1677       N  0.44837277  0.87318703  0.49540842    -0.38000
N1678       N  0.40959899  0.91662410  0.39998657    -0.38000
N1679       N  0.38338164  0.81298177  0.46525803    -0.37400
N1680       N  0.47262515  0.97766359  0.43067971    -0.37400
C1681       C  0.36894578  0.61699761  0.58448883    -0.04100
C1682       C  0.34932825  0.59383990  0.57328359    -0.01200
C1683       C  0.34908563  0.56712189  0.57327171     0.03800
C1684       C  0.36845546  0.56322576  0.58433686    -0.04100
C1685       C  0.38845974  0.58634992  0.59521932    -0.01200
C1686       C  0.38875313  0.61311117  0.59533536     0.03800
C1687       C  0.32999790  0.59765909  0.56119449     0.38400
C1688       C  0.40850026  0.58241342  0.60655526     0.38400
C1689       C  0.40898049  0.63622948  0.60708239     0.36800
C1690       C  0.32928935  0.54377204  0.56151101     0.36800
N1691       N  0.42522680  0.65464944  0.61641836    -0.38000
N1692       N  0.31355834  0.52530631  0.55201836    -0.38000
N1693       N  0.42446518  0.57932930  0.61564764    -0.37400
N1694       N  0.31457608  0.60067652  0.55154673    -0.37400
C1695       C  0.32415331  0.95978897  0.60401867    -0.04100
C1696       C  0.33177894  0.94776251  0.61856755    -0.01200
C1697       C  0.31000869  0.92472274  0.62869852     0.03800
C1698       C  0.28031015  0.91381046  0.62461466    -0.04100
C1699       C  0.27274688  0.92540575  0.60979071    -0.01200
C1700       C  0.29454271  0.94805962  0.59947143     0.03800
C1701       C  0.36203963  0.95974341  0.62353287     0.38400
C1702       C  0.24250547  0.91343975  0.60475323     0.38400
C1703       C  0.28645320  0.95877019  0.58382587     0.36800
C1704       C  0.31824572  0.91297545  0.64376229     0.36800
N1705       N  0.27985930  0.96710924  0.57130997    -0.38000
N1706       N  0.32475425  0.90349688  0.65574563    -0.38000
N1707       N  0.21840910  0.90390650  0.60069154    -0.37400
N1708       N  0.38617670  0.96930227  0.62749712    -0.37400
C1709       C  0.41100086  0.00299238  0.56259718    -0.04100
C1710       C  0.44073467  0.52021859  0.56617500    -0.01200
C1711       C  0.46155312  0.51919715  0.55478493     0.03800
C1712       C  0.45269005  0.50020921  0.53971231    -0.04100
C1713       C  0.42283264  0.98273532  0.53626221    -0.01200
C1714       C  0.40206551  0.98428315  0.54747227     0.03800
C1715       C  0.45024193  0.53896944  0.58193081     0.38400
C1716       C  0.41304641  0.96249027  0.52123187     0.38400
C1717       C  0.37143087  0.96719476  0.54312235     0.36800
C1718       C  0.49217110  0.53870792  0.55826624     0.36800
N1719       N  0.34697766  0.95363856  0.53970468    -0.38000
N1720       N  0.01657414  0.55429395  0.56100244    -0.38000
N1721       N  0.40516411  0.94631750  0.50925739    -0.37400
N1722       N  0.45808072  0.55395278  0.59447606    -0.37400
C1723       C  0.47121672  0.77882034  0.58761206    -0.04100
C1724       C  0.45096370  0.77085220  0.60178483    -0.01200
C1725       C  0.42526263  0.74370037  0.60139209     0.03800
C1726       C  0.41991244  0.72424352  0.58692138    -0.04100
C1727       C  0.44040962  0.73217112  0.57284670    -0.01200
C1728       C  0.46583584  0.75951700  0.57310795     0.03800
C1729       C  0.45657641  0.79068801  0.61672083     0.38400
C1730       C  0.43510275  0.71246308  0.55788563     0.38400
C1731       C  0.48659886  0.76787922  0.55846198     0.36800
C1732       C  0.40472265  0.73544391  0.61615403     0.36800
N1733       N  0.00320180  0.77476398  0.54679770    -0.38000
N1734       N  0.38832162  0.72879435  0.62792234    -0.38000
N1735       N  0.43093243  0.69671342  0.54597477    -0.37400
N1736       N  0.46109997  0.80652666  0.62863315    -0.37400
C1737       C  0.07420227  0.83718501  0.60741723    -0.04100
C1738       C  0.08458315  0.81811051  0.60271452    -0.01200
C1739       C  0.10749765  0.81845270  0.61250787     0.03800
C1740       C  0.12018265  0.83777992  0.62719602    -0.04100
C1741       C  0.11033361  0.85747584  0.63155730    -0.01200
C1742       C  0.08746449  0.85718659  0.62167330     0.03800
C1743       C  0.07190760  0.79832111  0.58757811     0.38400
C1744       C  0.12284539  0.87730161  0.64668113     0.38400
C1745       C  0.07693707  0.87686161  0.62656054     0.36800
C1746       C  0.11856316  0.79943202  0.60706132     0.36800
N1747       N  0.06855708  0.89258645  0.63039898    -0.38000
N1748       N  0.12743153  0.78432081  0.60269429    -0.38000
N1749       N  0.13281385  0.89313097  0.65873310    -0.37400
N1750       N  0.06169152  0.78250378  0.57554731    -0.37400
C1751       C  0.03347701  0.92284864  0.54148572    -0.04100
C1752       C  0.05176023  0.91084026  0.53862063    -0.01200
C1753       C  0.05059539  0.88945210  0.55039086     0.03800
C1754       C  0.03155280  0.88028744  0.56532022    -0.04100
C1755       C  0.01437273  0.89331538  0.56871498    -0.01200
C1756       C  0.01507502  0.91425694  0.55679222     0.03800
C1757       C  0.07250929  0.92113860  0.52391427     0.38400
C1758       C  0.49615415  0.88538319  0.58466608     0.38400
C1759       C  0.49607778  0.92622821  0.56009171     0.36800
C1760       C  0.06858153  0.87642420  0.54689518     0.36800
N1761       N  0.48097088  0.93579802  0.56275065    -0.38000
N1762       N  0.08296567  0.86605411  0.54417670    -0.38000
N1763       N  0.48169721  0.87908473  0.59740670    -0.37400
N1764       N  0.08918806  0.92948081  0.51225495    -0.37400
C1765       C  0.31314219  0.66893720  0.58553981    -0.04100
C1766       C  0.29042854  0.65037825  0.59724064    -0.01200
C1767       C  0.26352145  0.64975477  0.59680560     0.03800
C1768       C  0.25903776  0.66749229  0.58464058    -0.04100
C1769       C  0.28165106  0.68616592  0.57304495    -0.01200
C1770       C  0.30858314  0.68685596  0.57342721     0.03800
C1771       C  0.29488674  0.63241477  0.61008479     0.38400
C1772       C  0.27702579  0.70443458  0.56053798     0.38400
C1773       C  0.33114162  0.70521782  0.56081137     0.36800
C1774       C  0.24048956  0.63116393  0.60907256     0.36800
N1775       N  0.34910561  0.71983636  0.55073165    -0.38000
N1776       N  0.22212132  0.61644384  0.61889225    -0.38000
N1777       N  0.27335400  0.71900593  0.55055724    -0.37400
N1778       N  0.29845240  0.61805180  0.62029831    -0.37400
C1779       C  0.19549811  0.70845166  0.60202022    -0.04100
C1780       C  0.17802633  0.70104577  0.61763018    -0.01200
C1781       C  0.17724345  0.72293202  0.62815742     0.03800
C1782       C  0.19465041  0.75249777  0.62342605    -0.04100
C1783       C  0.21084802  0.75966123  0.60725348    -0.01200
C1784       C  0.21102591  0.73770814  0.59652770     0.03800
C1785       C  0.16172517  0.67098501  0.62323875     0.38400
C1786       C  0.22671039  0.78959656  0.60134926     0.38400
C1787       C  0.22688128  0.74514473  0.57964235     0.36800
C1788       C  0.15920146  0.71498018  0.64417003     0.36800
N1789       N  0.23932773  0.75103541  0.56610066    -0.38000
N1790       N  0.14463022  0.70860363  0.65686310    -0.38000
N1791       N  0.23926289  0.81347097  0.59662669    -0.37400
N1792       N  0.14878196  0.64699458  0.62769879    -0.37400
C1793       C  0.15783766  0.62152982  0.56065515    -0.04100
C1794       C  0.14298607  0.59215072  0.56585570    -0.01200
C1795       C  0.12157161  0.57093407  0.55449723     0.03800
C1796       C  0.11433920  0.57898155  0.53787445    -0.04100
C1797       C  0.12988695  0.60847336  0.53254549    -0.01200
C1798       C  0.15154424  0.62953279  0.54386766     0.03800
C1799       C  0.14974982  0.58375720  0.58298774     0.38400
C1800       C  0.12352039  0.61749066  0.51552659     0.38400
C1801       C  0.16794879  0.65949887  0.53807082     0.36800
C1802       C  0.10801359  0.54064301  0.55967312     0.36800
N1803       N  0.18119258  0.68340881  0.53349971    -0.38000
N1804       N  0.09733472  0.51649610  0.56377647    -0.38000
N1805       N  0.11860477  0.62472759  0.50191031    -0.37400
N1806       N  0.15516263  0.57708193  0.59664442    -0.37400
C1807       C  0.03524283  0.55534276  0.75426393    -0.04100
C1808       C  0.02253481  0.56194513  0.73961858    -0.01200
C1809       C  0.02346930  0.58896286  0.73892184     0.03800
C1810       C  0.03722999  0.60958121  0.75278853    -0.04100
C1811       C  0.05035837  0.60324574  0.76727021    -0.01200
C1812       C  0.04914474  0.57610365  0.76810287     0.03800
C1813       C  0.50930303  0.54132728  0.72496194     0.38400
C1814       C  0.06555643  0.62491624  0.78113743     0.38400
C1815       C  0.06146309  0.56921959  0.78348398     0.36800
C1816       C  0.51034978  0.59568983  0.72390624     0.36800
N1817       N  0.07114778  0.56362617  0.79578205    -0.38000
N1818       N  0.49999156  0.60124012  0.71195332    -0.38000
N1819       N  0.07783949  0.64232059  0.79210969    -0.37400
N1820       N  0.49882864  0.52490370  0.71324536    -0.37400
C1821       C  0.12145581  0.75481287  0.70694670    -0.04100
C1822       C  0.09148859  0.74172105  0.70269907    -0.01200
C1823       C  0.07052256  0.71969493  0.71379670     0.03800
C1824       C  0.07913039  0.71077000  0.72939352    -0.04100
C1825       C  0.10887900  0.72404935  0.73383691    -0.01200
C1826       C  0.12993808  0.74579006  0.72267349     0.03800
C1827       C  0.08194814  0.75126232  0.68713391     0.38400
C1828       C  0.11784382  0.71531952  0.75002366     0.38400
C1829       C  0.16042483  0.75801735  0.72717421     0.36800
C1830       C  0.04005877  0.70559723  0.70887436     0.36800
N1831       N  0.18471328  0.76773357  0.73080252    -0.38000
N1832       N  0.01576827  0.69429439  0.70493303    -0.38000
N1833       N  0.12489393  0.70825109  0.76291979    -0.37400
N1834       N  0.07433010  0.75886619  0.67472407    -0.37400
C1835       C  0.49394437  0.67011044  0.77205315    -0.04100
C1836       C  0.46575001  0.65891858  0.76487393    -0.01200
C1837       C  0.44359306  0.65927973  0.77527306     0.03800
C1838       C  0.44953372  0.67096178  0.79290724    -0.04100
C1839       C  0.47792678  0.68271900  0.79994316    -0.01200
C1840       C  0.50002855  0.68217044  0.78956923     0.03800
C1841       C  0.45957993  0.64685354  0.74678339     0.38400
C1842       C  0.48411780  0.69439130  0.81813067     0.38400
C1843       C  0.52887958  0.69331961  0.79706220     0.36800
C1844       C  0.41476613  0.64804534  0.76772277     0.36800
N1845       N  0.55190449  0.70213676  0.80301560    -0.38000
N1846       N  0.39177566  0.63915487  0.76169752    -0.38000
N1847       N  0.48897338  0.70362731  0.83265930    -0.37400
N1848       N  0.95482342  0.63727483  0.73233900    -0.37400
C1849       C  0.08824995  0.50117539  0.75541205    -0.04100
C1850       C  0.09527692  0.48796279  0.76954151    -0.01200
C1851       C  0.12154610  0.48729084  0.76907577     0.03800
C1852       C  0.14083025  0.49974758  0.75447180    -0.04100
C1853       C  0.13349719  0.01299706  0.73985176    -0.01200
C1854       C  0.10724668  0.01365183  0.74029709     0.03800
C1855       C  0.07588638  0.47585334  0.78482414     0.38400
C1856       C  0.15349816  0.02605480  0.72492920     0.38400
C1857       C  0.09983013  0.02651147  0.72546675     0.36800
C1858       C  0.12885381  0.47388854  0.78363266     0.36800
N1859       N  0.09388688  0.03674277  0.71363579    -0.38000
N1860       N  0.13477737  0.46326763  0.79524480    -0.38000
N1861       N  0.16957754  0.03647770  0.71309010    -0.37400
N1862       N  0.06042505  0.46631364  0.79703172    -0.37400
C1863       C  0.24519765  0.54349851  0.77124881    -0.04100
C1864       C  0.25480437  0.53663713  0.78724640    -0.01200
C1865       C  0.27676390  0.55885973  0.79779094     0.03800
C1866       C  0.28948241  0.58815993  0.79232624    -0.04100
C1867       C  0.28058955  0.59486961  0.77593753    -0.01200
C1868       C  0.25854376  0.57260971  0.76544320     0.03800
C1869       C  0.24134037  0.50672893  0.79316565     0.38400
C1870       C  0.29450803  0.62462747  0.76968259     0.38400
C1871       C  0.24968168  0.57957174  0.74855596     0.36800
C1872       C  0.28515771  0.55164044  0.81476268     0.36800
N1873       N  0.24262437  0.58504250  0.73505366    -0.38000
N1874       N  0.29176922  0.54590251  0.82833602    -0.38000
N1875       N  0.30567705  0.64837106  0.76470271    -0.37400
N1876       N  0.23056743  0.48282813  0.79779836    -0.37400
C1877       C  0.19812517  0.95540122  0.73048466    -0.04100
C1878       C  0.21319590  0.96370042  0.71396073    -0.01200
C1879       C  0.21499936  0.94295215  0.70286794     0.03800
C1880       C  0.20071567  0.91327633  0.70784607    -0.04100
C1881       C  0.18517748  0.90497869  0.72437810    -0.01200
C1882       C  0.18410053  0.92598767  0.73564761     0.03800
C1883       C  0.22592609  0.99356010  0.70803278     0.38400
C1884       C  0.16932674  0.87470272  0.72964416     0.38400
C1885       C  0.16834200  0.91730063  0.75257066     0.36800
C1886       C  0.23232207  0.95254735  0.68655845     0.36800
N1887       N  0.15571192  0.91036596  0.76604030    -0.38000
N1888       N  0.24622079  0.96026536  0.67358470    -0.38000
N1889       N  0.15667686  0.85057647  0.73386674    -0.37400
N1890       N  0.23506326  0.51730024  0.70341481    -0.37400
C1891       C  0.42745808  0.89529611  0.75213809    -0.04100
C1892       C  0.45019477  0.90032038  0.74020911    -0.01200
C1893       C  0.47682961  0.92660541  0.74107403     0.03800
C1894       C  0.48090448  0.94817340  0.75389376    -0.04100
C1895       C  0.45815764  0.94284661  0.76601224    -0.01200
C1896       C  0.43158175  0.91646872  0.76514580     0.03800
C1897       C  0.44612070  0.87829895  0.72705128     0.38400
C1898       C  0.46241025  0.96400552  0.77984403     0.38400
C1899       C  0.40850581  0.91083861  0.77780160     0.36800
C1900       C  0.49975765  0.93163348  0.72843421     0.36800
N1901       N  0.39006226  0.90617307  0.78790730    -0.38000
N1902       N  0.51809790  0.93563152  0.71840012    -0.38000
N1903       N  0.46583191  0.98085261  0.79091038    -0.37400
N1904       N  0.44281226  0.86066708  0.71659553    -0.37400
C1905       C  0.36543094  0.79227372  0.77103768    -0.04100
C1906       C  0.35439628  0.78791056  0.78877057    -0.01200
C1907       C  0.35381486  0.76570810  0.79951469     0.03800
C1908       C  0.36427362  0.74776838  0.79254922    -0.04100
C1909       C  0.37441533  0.75157666  0.77460085    -0.01200
C1910       C  0.37491890  0.77371692  0.76387251     0.03800
C1911       C  0.34404042  0.80658239  0.79600411     0.38400
C1912       C  0.38398038  0.73242248  0.76710034     0.38400
C1913       C  0.38533435  0.77758336  0.74544399     0.36800
C1914       C  0.34354448  0.76207211  0.81797156     0.36800
N1915       N  0.39353155  0.78072760  0.73071391    -0.38000
N1916       N  0.33544255  0.75920735  0.83271715    -0.38000
N1917       N  0.39152376  0.71705615  0.76114214    -0.37400
N1918       N  0.33572618  0.82147447  0.80171155    -0.37400
C1919       C  0.32687551  0.83705414  0.72720703    -0.04100
C1920       C  0.30979601  0.84899149  0.73317743    -0.01200
C1921       C  0.28812500  0.84851484  0.72191814     0.03800
C1922       C  0.28259386  0.83519297  0.70458049    -0.04100
C1923       C  0.29991501  0.82312577  0.69870377    -0.01200
C1924       C  0.32190380  0.82413471  0.70997947     0.03800
C1925       C  0.31438971  0.86155540  0.75112383     0.38400
C1926       C  0.29509793  0.80920800  0.68118845     0.38400
C1927       C  0.33961286  0.81192878  0.70385405     0.36800
C1928       C  0.27244426  0.86288324  0.72814148     0.36800
N1929       N  0.35376208  0.80218756  0.69903589    -0.38000
N1930       N  0.26001614  0.87438969  0.73313728    -0.38000
N1931       N  0.29144319  0.79819598  0.66719479    -0.37400
N1932       N  0.31798846  0.87140228  0.76547077    -0.37400
C1933       C  0.49318770  0.79609388  0.89381529    -0.04100
C1934       C  0.47821294  0.76718138  0.89991697    -0.01200
C1935       C  0.45597671  0.74525766  0.88935244     0.03800
C1936       C  0.44785859  0.75212156  0.87263657    -0.04100
C1937       C  0.46257696  0.78144328  0.86679381    -0.01200
C1938       C  0.48525043  0.80317537  0.87727105     0.03800
C1939       C  0.48569590  0.75999380  0.91721911     0.38400
C1940       C  0.45424140  0.78962772  0.85014843     0.38400
C1941       C  0.00093815  0.83283183  0.87084055     0.36800
C1942       C  0.44248023  0.71545112  0.89549745     0.36800
N1943       N  0.01354004  0.85648636  0.86572536    -0.38000
N1944       N  0.43182244  0.69170475  0.90042816    -0.38000
N1945       N  0.44767378  0.79623161  0.83686983    -0.37400
N1946       N  0.49158893  0.75428996  0.93104347    -0.37400
C1947       C  0.03541935  0.88165491  0.93657518    -0.04100
C1948       C  0.01435451  0.87305224  0.95039414    -0.01200
C1949       C  0.01340558  0.89405107  0.96172876     0.03800
C1950       C  0.03368158  0.92382470  0.95946546    -0.04100
C1951       C  0.05448944  0.93243439  0.94551881    -0.01200
C1952       C  0.05519404  0.91151486  0.93405947     0.03800
C1953       C  0.49412017  0.84252223  0.95332211     0.38400
C1954       C  0.07603885  0.96282072  0.94336440     0.38400
C1955       C  0.07630524  0.92086378  0.91956516     0.36800
C1956       C  0.49112360  0.88500668  0.97548925     0.36800
N1957       N  0.09322737  0.92840450  0.90805842    -0.38000
N1958       N  0.47333804  0.87784702  0.98644524    -0.38000
N1959       N  0.09322896  0.98704642  0.94171292    -0.37400
N1960       N  0.47792804  0.81817304  0.95563236    -0.37400
C1961       C  0.14845995  0.83791023  0.91891497    -0.04100
C1962       C  0.14493178  0.85584451  0.90626654    -0.01200
C1963       C  0.11837340  0.85587828  0.90518945     0.03800
C1964       C  0.09500814  0.83764221  0.91647075    -0.04100
C1965       C  0.09834655  0.81958215  0.92897216    -0.01200
C1966       C  0.12506979  0.81998251  0.93038261     0.03800
C1967       C  0.16829586  0.87371628  0.89397863     0.38400
C1968       C  0.07426492  0.80075935  0.94052405     0.38400
C1969       C  0.12882712  0.80290569  0.94423356     0.36800
C1970       C  0.11498975  0.87460427  0.89240331     0.36800
N1971       N  0.13188600  0.78943534  0.95535941    -0.38000
N1972       N  0.11231254  0.88955515  0.88220760    -0.38000
N1973       N  0.05501947  0.78569733  0.94970046    -0.37400
N1974       N  0.18693257  0.88794952  0.88417519    -0.37400
C1975       C  0.20250478  0.78443887  0.92021868    -0.04100
C1976       C  0.21154320  0.77478997  0.93528761    -0.01200
C1977       C  0.21165063  0.74825311  0.93449536     0.03800
C1978       C  0.20293686  0.73131537  0.91857103    -0.04100
C1979       C  0.19453956  0.74134820  0.90336360    -0.01200
C1980       C  0.19409674  0.76770155  0.90424099     0.03800
C1981       C  0.22010421  0.79187493  0.95175130     0.38400
C1982       C  0.18606716  0.72439585  0.88684912     0.38400
C1983       C  0.18542165  0.77788252  0.88859070     0.36800
C1984       C  0.22115739  0.73854479  0.94998211     0.36800
N1985       N  0.17850796  0.78609799  0.87615172    -0.38000
N1986       N  0.22874486  0.73073431  0.96230387    -0.38000
N1987       N  0.17947233  0.71093292  0.87364874    -0.37400
N1988       N  0.22689196  0.80551774  0.96488111    -0.37400
C1989       C  0.24273377  0.66867497  0.89613820    -0.04100
C1990       C  0.27217595  0.68412893  0.90138796    -0.01200
C1991       C  0.29385832  0.68365425  0.89051950     0.03800
C1992       C  0.28629680  0.66698495  0.87439416    -0.04100
C1993       C  0.25651349  0.65033342  0.86965869    -0.01200
C1994       C  0.23495779  0.65149067  0.88035220     0.03800
C1995       C  0.28014847  0.70047066  0.91815854     0.38400
C1996       C  0.24777519  0.63135204  0.85401354     0.38400
C1997       C  0.20476483  0.63554291  0.87484533     0.36800
C1998       C  0.32405988  0.70140932  0.89571731     0.36800
N1999       N  0.18067588  0.62286358  0.87045206    -0.38000
N2000       N  0.34812468  0.71562048  0.89989176    -0.38000
N2001       N  0.24077357  0.61612354  0.84157526    -0.37400
N2002       N  0.28636759  0.71337699  0.93157108    -0.37400
C2003       C  0.11494431  0.58374884  0.96134430    -0.04100
C2004       C  0.10630352  0.59592516  0.94734429    -0.01200
C2005       C  0.12726836  0.61792368  0.93624225     0.03800
C2006       C  0.15719136  0.62806054  0.93893016    -0.04100
C2007       C  0.16585353  0.61600932  0.95295065    -0.01200
C2008       C  0.14489064  0.59408913  0.96413256     0.03800
C2009       C  0.07579527  0.58664516  0.94473432     0.38400
C2010       C  0.19647694  0.62672252  0.95620287     0.38400
C2011       C  0.15425368  0.58186828  0.97833315     0.36800
C2012       C  0.11793279  0.63008060  0.92196439     0.36800
N2013       N  0.16174767  0.57218759  0.98969266    -0.38000
N2014       N  0.11049197  0.63990256  0.91066008    -0.38000
N2015       N  0.22092799  0.63528441  0.95871588    -0.37400
N2016       N  0.05147768  0.57926840  0.94267848    -0.37400
C2017       C  0.30765210  0.94501383  0.92006918    -0.04100
C2018       C  0.30302235  0.92254227  0.90799156    -0.01200
C2019       C  0.27696330  0.89576782  0.90865450     0.03800
C2020       C  0.25539562  0.89123834  0.92152883    -0.04100
C2021       C  0.26018957  0.91382980  0.93367333    -0.01200
C2022       C  0.28620530  0.94067857  0.93286908     0.03800
C2023       C  0.32501170  0.92718045  0.89470530     0.38400
C2024       C  0.23877899  0.90923409  0.94736703     0.38400
C2025       C  0.29101926  0.96392515  0.94521887     0.36800
C2026       C  0.27199128  0.87330887  0.89560612     0.36800
N2027       N  0.29492756  0.98254697  0.95501850    -0.38000
N2028       N  0.26797836  0.85538430  0.88520046    -0.38000
N2029       N  0.22174929  0.90557364  0.95832656    -0.37400
N2030       N  0.34253487  0.93093672  0.88408747    -0.37400
C2031       C  0.36717529  0.54655602  0.89652118    -0.04100
C2032       C  0.35173865  0.56090734  0.90133007    -0.01200
C2033       C  0.35242022  0.58265261  0.89010171     0.03800
C2034       C  0.36902259  0.59070538  0.87399484    -0.04100
C2035       C  0.38466268  0.57633634  0.86929305    -0.01200
C2036       C  0.38368116  0.55438844  0.88050069     0.03800
C2037       C  0.33519390  0.55335338  0.91797258     0.38400
C2038       C  0.40213873  0.58422453  0.85303395     0.38400
C2039       C  0.39915417  0.53930842  0.87533545     0.36800
C2040       C  0.33481998  0.59568322  0.89482867     0.36800
N2041       N  0.41252077  0.02819209  0.87234126    -0.38000
N2042       N  0.32070295  0.60598570  0.89857873    -0.38000
N2043       N  0.41601193  0.59036791  0.84003958    -0.37400
N2044       N  0.32203140  0.54733079  0.93125042    -0.37400
C2045       C  0.41186248  0.50507315  0.93850276    -0.04100
C2046       C  0.42202614  0.52325435  0.95382881    -0.01200
C2047       C  0.44418440  0.02443128  0.96457236     0.03800
C2048       C  0.45643454  0.50614995  0.96018821    -0.04100
C2049       C  0.44658395  0.48840182  0.94456532    -0.01200
C2050       C  0.42449453  0.48797331  0.93377760     0.03800
C2051       C  0.40914931  0.04158019  0.95878610     0.38400
C2052       C  0.45821276  0.46954110  0.93990371     0.38400
C2053       C  0.41460048  0.46972521  0.91779985     0.36800
C2054       C  0.45569977  0.04455534  0.97962696     0.36800
N2055       N  0.40672914  0.45513047  0.90508140    -0.38000
N2056       N  0.46493191  0.06065448  0.99160501    -0.38000
N2057       N  0.96749568  0.45451668  0.93619373    -0.37400
N2058       N  0.39897461  0.05576102  0.96265618    -0.37400
C2059       C  0.25609026  0.56011211  0.08536830    -0.04100
C2060       C  0.27478242  0.56681394  0.07041649    -0.01200
C2061       C  0.30129550  0.59313434  0.07001182     0.03800
C2062       C  0.30903581  0.61301250  0.08446512    -0.04100
C2063       C  0.28999258  0.60660524  0.09922804    -0.01200
C2064       C  0.26369934  0.58003550  0.09976585     0.03800
C2065       C  0.26677700  0.54645724  0.05552011     0.38400
C2066       C  0.29771935  0.62709703  0.11402444     0.38400
C2067       C  0.24442154  0.57312924  0.11511443     0.36800
C2068       C  0.32029465  0.60011159  0.05450689     0.36800
N2069       N  0.22903657  0.56751573  0.12736312    -0.38000
N2070       N  0.33547925  0.60577209  0.04215055    -0.38000
N2071       N  0.30388882  0.64352283  0.12578165    -0.37400
N2072       N  0.26028156  0.53019254  0.04364775    -0.37400
C2073       C  0.19846103  0.95838776  0.10794709    -0.04100
C2074       C  0.18000055  0.94711397  0.12303317    -0.01200
C2075       C  0.17930330  0.92422802  0.13302488     0.03800
C2076       C  0.19737343  0.91266590  0.12811049    -0.04100
C2077       C  0.21562144  0.92382071  0.11284921    -0.01200
C2078       C  0.21616136  0.94658565  0.10284504     0.03800
C2079       C  0.16228575  0.95962878  0.12857494     0.38400
C2080       C  0.23457746  0.91254545  0.10765819     0.38400
C2081       C  0.23499851  0.95788983  0.08723106     0.36800
C2082       C  0.15932473  0.91209694  0.14805846     0.36800
N2083       N  0.25011661  0.96703010  0.07484103    -0.38000
N2084       N  0.14333931  0.90238266  0.16001353    -0.38000
N2085       N  0.24960981  0.90348206  0.10348973    -0.37400
N2086       N  0.14821500  0.96967939  0.13297644    -0.37400
C2087       C  0.10899367  0.99820832  0.04399724    -0.04100
C2088       C  0.11966521  0.97881869  0.04085618    -0.01200
C2089       C  0.14155423  0.97954900  0.05203746     0.03800
C2090       C  0.15248997  0.99918677  0.06667589    -0.04100
C2091       C  0.14072853  0.51565455  0.07018196    -0.01200
C2092       C  0.11924846  0.51561171  0.05898764     0.03800
C2093       C  0.10898041  0.95878354  0.02572874     0.38400
C2094       C  0.14965895  0.53314544  0.08650282     0.38400
C2095       C  0.10669387  0.53362317  0.06373229     0.36800
C2096       C  0.15355320  0.96079133  0.04806580     0.36800
N2097       N  0.09672879  0.54801098  0.06755610    -0.38000
N2098       N  0.16309816  0.94580026  0.04493702    -0.38000
N2099       N  0.15677758  0.54688676  0.09959158    -0.37400
N2100       N  0.10034894  0.94268066  0.01372827    -0.37400
C2101       C  0.36412434  0.71959315  0.08255592    -0.04100
C2102       C  0.34865635  0.72486873  0.06897875    -0.01200
C2103       C  0.34925713  0.75169621  0.06836280     0.03800
C2104       C  0.36565783  0.77350668  0.08111081    -0.04100
C2105       C  0.38128394  0.76840788  0.09459254    -0.01200
C2106       C  0.38036759  0.74143120  0.09540803     0.03800
C2107       C  0.33265518  0.70297368  0.05537073     0.38400
C2108       C  0.39798760  0.79086069  0.10775336     0.38400
C2109       C  0.39511313  0.73572925  0.10993954     0.26000
C2110       C  0.33276092  0.75684337  0.05472799     0.36800
N2111       N  0.40671230  0.73107829  0.12158151    -0.38000
N2112       N  0.31955677  0.76100496  0.04391683    -0.38000
N2113       N  0.41129953  0.80883111  0.11821860    -0.37400
N2114       N  0.31993602  0.68550015  0.04451447    -0.37400
C2115       C  0.32076924  0.83169406  0.10179768    -0.04100
C2116       C  0.29090292  0.81295528  0.09839572    -0.01200
C2117       C  0.26976803  0.81338978  0.10978542     0.03800
C2118       C  0.27826339  0.83275927  0.12461570    -0.04100
C2119       C  0.30811292  0.85178298  0.12784051    -0.01200
C2120       C  0.32924374  0.85106391  0.11658346     0.03800
C2121       C  0.28184186  0.79300382  0.08321257     0.38400
C2122       C  0.31718972  0.87257164  0.14255298     0.38400
C2123       C  0.35978287  0.86946880  0.12070654     0.36800
C2124       C  0.23926558  0.79296373  0.10664699     0.36800
N2125       N  0.38412619  0.88408406  0.12407073    -0.38000
N2126       N  0.21494404  0.77664902  0.10420556    -0.38000
N2127       N  0.32448095  0.88922011  0.15425231    -0.37400
N2128       N  0.27456213  0.77697087  0.07117508    -0.37400
C2129       C  0.40696767  0.87567501  0.05990281    -0.04100
C2130       C  0.43222293  0.89739964  0.06846551    -0.01200
C2131       C  0.45398057  0.92029094  0.05829792     0.03800
C2132       C  0.45062363  0.92155724  0.03951533    -0.04100
C2133       C  0.42535806  0.89989618  0.03094587    -0.01200
C2134       C  0.40362567  0.87694765  0.04110510     0.03800
C2135       C  0.43629522  0.89559791  0.08764291     0.38400
C2136       C  0.42212542  0.90085969  0.01159085     0.38400
C2137       C  0.37805560  0.85428283  0.03219569     0.36800
C2138       C  0.48004108  0.94238969  0.06711068     0.36800
N2139       N  0.35768755  0.83608706  0.02512289    -0.38000
N2140       N  0.00085985  0.96000802  0.07412081    -0.38000
N2141       N  0.41964946  0.90165493  0.99614025    -0.37400
N2142       N  0.43970651  0.89408984  0.10291582    -0.37400
C2143       C  0.47002252  0.66621971  0.08239170    -0.04100
C2144       C  0.44968867  0.65100087  0.09609282    -0.01200
C2145       C  0.42265111  0.65008915  0.09625799     0.03800
C2146       C  0.41577057  0.66413741  0.08256602    -0.04100
C2147       C  0.43573905  0.67834386  0.06846433    -0.01200
C2148       C  0.46294187  0.67968745  0.06851251     0.03800
C2149       C  0.45667703  0.63630398  0.11000096     0.38400
C2150       C  0.42782765  0.69057306  0.05351215     0.38400
C2151       C  0.48375732  0.69498431  0.05430545     0.36800
C2152       C  0.40227766  0.63534169  0.11076831     0.36800
N2153       N  0.00045323  0.70721859  0.04302611    -0.38000
N2154       N  0.38600211  0.62356041  0.12232977    -0.38000
N2155       N  0.42133087  0.70005467  0.04152739    -0.37400
N2156       N  0.46229265  0.62452919  0.12103697    -0.37400
C2157       C  0.07310387  0.71274933  0.10306627    -0.04100
C2158       C  0.07950921  0.70469661  0.11975889    -0.01200
C2159       C  0.10223993  0.72539320  0.13055356     0.03800
C2160       C  0.11863399  0.75467359  0.12483909    -0.04100
C2161       C  0.11211090  0.76256019  0.10790673    -0.01200
C2162       C  0.08952246  0.74158779  0.09708029     0.03800
C2163       C  0.06230506  0.67498058  0.12592099     0.38400
C2164       C  0.12783864  0.79235659  0.10169916     0.38400
C2165       C  0.08317023  0.74959076  0.07968303     0.36800
C2166       C  0.10893468  0.71606382  0.14736069     0.36800
N2167       N  0.07809593  0.75589976  0.06579467    -0.38000
N2168       N  0.11414454  0.70854217  0.16077317    -0.38000
N2169       N  0.14034135  0.81607413  0.09667410    -0.37400
N2170       N  0.04847613  0.65126730  0.13074569    -0.37400
C2171       C  0.03539738  0.58224561  0.04203879    -0.04100
C2172       C  0.05055583  0.61148483  0.03639465    -0.01200
C2173       C  0.04923850  0.63313804  0.04675680     0.03800
C2174       C  0.03268404  0.62565310  0.06274681    -0.04100
C2175       C  0.01846614  0.59665554  0.06875771    -0.01200
C2176       C  0.01979587  0.57499034  0.05842963     0.03800
C2177       C  0.06640119  0.61914541  0.01949212     0.38400
C2178       C  0.00276864  0.58923417  0.08571371     0.38400
C2179       C  0.00561606  0.54532412  0.06487346     0.36800
C2180       C  0.06418611  0.66301900  0.04069241     0.36800
N2181       N  0.99438125  0.52167910  0.07003174    -0.38000
N2182       N  0.07613541  0.68688886  0.03593572    -0.38000
N2183       N  0.99033494  0.58342584  0.09926265    -0.37400
N2184       N  0.07898117  0.62522650  0.00599283    -0.37400
C2185       C  0.54898117  0.19063072  0.09151816     0.04400
C2186       C  0.52199863  0.18950018  0.09169683    -0.11800
C2187       C  0.49856081  0.16773535  0.08206426     0.01900
C2188       C  0.50218871  0.14724138  0.07218055    -0.10300
C2189       C  0.52912358  0.14838084  0.07193087     0.04300
C2190       C  0.55251405  0.17005453  0.08160063    -0.09700
H2191       H  0.51915942  0.20526768  0.09947239     0.09900
H2192       H  0.98406618  0.13040351  0.06471688     0.07500
H2193       H  0.57326660  0.17073382  0.08155874     0.07300
C2194       C  0.88536972  0.35079650  0.07035855     0.04400
C2195       C  0.88599420  0.32467763  0.07054969    -0.11800
C2196       C  0.86570232  0.30122527  0.08076757     0.01900
C2197       C  0.84479827  0.30383484  0.09081210    -0.10300
C2198       C  0.84368433  0.32964959  0.09061731     0.04300
C2199       C  0.86409860  0.35321204  0.08035166    -0.09700
H2200       H  0.90230011  0.32266374  0.06284913     0.09900
H2201       H  0.82935048  0.28567962  0.09884749     0.07500
H2202       H  0.86352170  0.37332870  0.08020203     0.07300
C2203       C  0.70112401  0.48226571  0.09630443     0.04400
C2204       C  0.72562146  0.00970741  0.09746244    -0.11800
C2205       C  0.72777175  0.03258458  0.08705042     0.01900
C2206       C  0.70387838  0.02887085  0.07696934    -0.10300
C2207       C  0.67863521  0.50159458  0.07618617     0.04300
C2208       C  0.67702430  0.47857510  0.08632417    -0.09700
H2209       H  0.74421470  0.01254684  0.10516183     0.09900
H2210       H  0.70567797  0.04658696  0.06881087     0.07500
H2211       H  0.65710340  0.45787117  0.08644944     0.07300
C2212       C  0.83688546  0.14010361  0.08420187     0.81400
N2213       N  0.86216606  0.13947167  0.08369390    -0.76900
C2214       C  0.88793860  0.16460201  0.08315060     0.83900
N2215       N  0.88824946  0.19032991  0.08300291    -0.76800
C2216       C  0.86306150  0.19108561  0.08338671     0.84000
N2217       N  0.83737640  0.16591119  0.08402912    -0.78500
C2218       C  0.86404455  0.02205679  0.90804115     0.04400
C2219       C  0.83849443  0.49622276  0.90875945    -0.11800
C2220       C  0.83606804  0.47324717  0.91925186     0.01900
C2221       C  0.86011417  0.47640530  0.92889323    -0.10300
C2222       C  0.88576136  0.00227954  0.92851435     0.04300
C2223       C  0.88809519  0.02522125  0.91789628    -0.09700
H2224       H  0.81987771  0.49366379  0.90120669     0.09900
H2225       H  0.85817058  0.45858895  0.93700869     0.07500
H2226       H  0.90853520  0.04536800  0.91724224     0.07300
C2227       C  0.67895265  0.15211350  0.92761959     0.04400
C2228       C  0.68092375  0.17949562  0.92832219    -0.11800
C2229       C  0.70188638  0.20273766  0.91822582     0.01900
C2230       C  0.72145878  0.19869325  0.90755147    -0.10300
C2231       C  0.72018382  0.17162668  0.90682784     0.04300
C2232       C  0.69863367  0.14827835  0.91672331    -0.09700
H2233       H  0.66609763  0.18277088  0.93678667     0.09900
H2234       H  0.73793882  0.21674630  0.89993455     0.07500
H2235       H  0.69751160  0.12734546  0.91618853     0.07300
C2236       C  0.72822652  0.36366344  0.92214808     0.81400
N2237       N  0.72833656  0.33810408  0.92228356    -0.76900
C2238       C  0.70300140  0.31254888  0.92164192     0.83900
N2239       N  0.67742174  0.31254892  0.92084258    -0.76800
C2240       C  0.67705029  0.33797124  0.92087726     0.84000
N2241       N  0.70251981  0.36345979  0.92144796    -0.78500
C2242       C  0.51825592  0.31751470  0.90486454     0.04400
C2243       C  0.54455247  0.31717699  0.90562840    -0.11800
C2244       C  0.56733435  0.33704606  0.91653631     0.01900
C2245       C  0.56377052  0.35716596  0.92687183    -0.10300
C2246       C  0.53803501  0.35855590  0.92588706     0.04300
C2247       C  0.51529460  0.33863343  0.91474475    -0.09700
H2248       H  0.54717102  0.30125654  0.89787533     0.09900
H2249       H  0.58126445  0.37198124  0.93562252     0.07500
H2250       H  0.99525298  0.33931192  0.91390685     0.07300
Zn2251     Zn  0.53432255  0.00367238  0.97485277     1.49700
Zn2252     Zn  0.56901085  0.03636603  0.01020482     1.49400
Zn2253     Zn  0.99877245  0.00295917  0.00998832     1.49100
Zn2254     Zn  0.53230943  0.46652498  0.00952624     1.49500
O2255       O  0.53353255  0.00242400  0.00123625    -1.82900
O2256       O  0.56982589  0.03913462  0.96533423    -0.73500
O2257       O  0.55867062  0.06177897  0.02507123    -0.73300
O2258       O  0.97515751  0.00500778  0.98925394    -0.72900
O2259       O  0.59502261  0.06152371  0.98985053    -0.73500
O2260       O  0.49968672  0.00496380  0.96499366    -0.73100
O2261       O  0.51029697  0.03797554  0.02572100    -0.73700
O2262       O  0.99606999  0.44191770  0.02401656    -0.73100
O2263       O  0.59166353  0.02389154  0.02623165    -0.73900
O2264       O  0.97276080  0.46707853  0.02424721    -0.73300
O2265       O  0.56637630  0.47545076  0.02565840    -0.73700
O2266       O  0.53236523  0.44221616  0.98844395    -0.73600
O2267       O  0.53468199  0.46833223  0.96447595    -0.73400
C2268       C  0.59195631  0.06006220  0.97276753     0.78400
C2269       C  0.53468789  0.05948634  0.03014288     0.78900
C2270       C  0.97813790  0.00546644  0.97219496     0.77800
C2271       C  0.97457655  0.44488048  0.02866743     0.78200
C2272       C  0.58818305  0.49894899  0.03106671     0.79300
C2273       C  0.53345491  0.44584897  0.97143246     0.78400
C2274       C  0.86915996  0.31733410  0.76044168     0.04400
C2275       C  0.89553813  0.34353656  0.76140170    -0.11800
C2276       C  0.89961769  0.36762179  0.75142742     0.01900
C2277       C  0.87717388  0.36546033  0.74039314    -0.10300
C2278       C  0.85072650  0.33928484  0.73926173     0.04300
C2279       C  0.84678938  0.31525902  0.74934331    -0.09700
H2280       H  0.91287469  0.34514923  0.76987525     0.09900
H2281       H  0.88028774  0.38402025  0.73267964     0.07500
H2282       H  0.82633410  0.29494667  0.74853680     0.07300
C2283       C  0.71911142  0.02057251  0.76118222     0.04400
C2284       C  0.69262692  0.02039670  0.76226806    -0.11800
C2285       C  0.66803529  0.99901624  0.75333319     0.01900
C2286       C  0.67012485  0.47746553  0.74371998    -0.10300
C2287       C  0.69651053  0.47744518  0.74236674     0.04300
C2288       C  0.72083653  0.99901993  0.75103983    -0.09700
H2289       H  0.69118005  0.03700709  0.77002144     0.09900
H2290       H  0.65112445  0.46112641  0.73664772     0.07500
H2291       H  0.74127605  0.99913640  0.75007580     0.07300
C2292       C  0.55713956  0.18696613  0.74072606     0.04400
C2293       C  0.55732615  0.16061129  0.74135960    -0.11800
C2294       C  0.53734367  0.13780608  0.75212647     0.01900
C2295       C  0.51689427  0.14124036  0.76220545    -0.10300
C2296       C  0.51622353  0.16729715  0.76156240     0.04300
C2297       C  0.53646707  0.19022413  0.75086075    -0.09700
H2298       H  0.57305128  0.15786685  0.73349172     0.09900
H2299       H  0.00125650  0.12348427  0.77041259     0.07500
H2300       H  0.53609371  0.21043493  0.75039238     0.07300
C2301       C  0.50919351  0.47601613  0.75492096     0.81400
N2302       N  0.53481227  0.47600521  0.75551757    -0.76900
C2303       C  0.56006337  0.00140317  0.75518994     0.83900
N2304       N  0.56005454  0.02695915  0.75490681    -0.76800
C2305       C  0.53464150  0.02731195  0.75454920     0.84000
N2306       N  0.50907470  0.00184909  0.75430263    -0.78500
Zn2307     Zn  0.90178096  0.20431287  0.82381760     1.49700
Zn2308     Zn  0.86807475  0.17002788  0.85938646     1.49400
Zn2309     Zn  0.83171303  0.16810672  0.82437179     1.49100
Zn2310     Zn  0.86857569  0.13475354  0.82408583     1.49500
O2311       O  0.86749496  0.16929565  0.83289415    -1.82900
O2312       O  0.92666212  0.22991599  0.84430976    -0.73500
O2313       O  0.83168658  0.16844409  0.86952473    -0.73300
O2314       O  0.84128088  0.20375621  0.80955780    -0.72900
O2315       O  0.90326732  0.20642837  0.86895725    -0.73500
O2316       O  0.88957183  0.22773598  0.80828248    -0.73100
O2317       O  0.80637382  0.16692190  0.84538462    -0.73700
O2318       O  0.83353694  0.10952056  0.80869720    -0.73100
O2319       O  0.86938262  0.13513846  0.86910512    -0.73900
O2320       O  0.80813357  0.13259308  0.80854214    -0.73300
O2321       O  0.86841416  0.11000279  0.84486179    -0.73700
O2322       O  0.90442835  0.14595729  0.80889427    -0.73600
O2323       O  0.92751792  0.19417954  0.80885486    -0.73400
C2324       C  0.92466837  0.22800529  0.86142866     0.78400
C2325       C  0.80922087  0.16729314  0.86247272     0.78900
C2326       C  0.86505934  0.22509037  0.80410666     0.77800
C2327       C  0.81154160  0.11136478  0.80370846     0.78200
C2328       C  0.86883121  0.11299354  0.86193427     0.79300
C2329       C  0.92574803  0.17024985  0.80413374     0.78400
C2330       C  0.68138417  0.14379681  0.57249988     0.04400
C2331       C  0.67704069  0.16435446  0.58200979    -0.11800
C2332       C  0.69958497  0.18593080  0.59244068     0.01900
C2333       C  0.72643888  0.18679015  0.59329213    -0.10300
C2334       C  0.73084899  0.16633253  0.58391702     0.04300
C2335       C  0.70830245  0.14486106  0.57358506    -0.09700
H2336       H  0.65635788  0.16374240  0.58114588     0.09900
H2337       H  0.74395557  0.20344886  0.60123599     0.07500
H2338       H  0.71183816  0.12921918  0.56618016     0.07300
C2339       C  0.52897916  0.35649986  0.57723646     0.04400
C2340       C  0.50232062  0.33054030  0.57770907    -0.11800
C2341       C  0.49895750  0.30737542  0.58835633     0.01900
C2342       C  0.52229355  0.31015652  0.59862562    -0.10300
C2343       C  0.54926695  0.33570843  0.59796034     0.04300
C2344       C  0.55246110  0.35897602  0.58736262    -0.09700
H2345       H  0.98432267  0.32819534  0.56956436     0.09900
H2346       H  0.51973269  0.29204085  0.60668405     0.07500
H2347       H  0.57325656  0.37874937  0.58676550     0.07300
C2348       C  0.84691858  0.48471667  0.59372528     0.04400
C2349       C  0.84750184  0.01173608  0.59399279    -0.11800
C2350       C  0.86857299  0.03540518  0.58421167     0.01900
C2351       C  0.88926136  0.03234819  0.57415106    -0.10300
C2352       C  0.88896871  0.50572777  0.57366808     0.04300
C2353       C  0.86792823  0.48206290  0.58357191    -0.09700
H2354       H  0.83147800  0.01413010  0.60176575     0.09900
H2355       H  0.90530429  0.05055952  0.56642204     0.07500
H2356       H  0.86775163  0.46157021  0.58325015     0.07300
C2357       C  0.89308264  0.19634563  0.58614366     0.81400
N2358       N  0.89387234  0.17116554  0.58524606    -0.76900
C2359       C  0.86883762  0.14521840  0.58481168     0.83900
N2360       N  0.84298839  0.14479253  0.58504602    -0.76800
C2361       C  0.84198321  0.16986557  0.58569815     0.84000
N2362       N  0.86713072  0.19558670  0.58636205    -0.78500
Zn2363     Zn  0.73454872  0.33299586  0.65575771     1.49700
Zn2364     Zn  0.70148756  0.36992024  0.65749997     1.49400
Zn2365     Zn  0.66473002  0.30017052  0.65732918     1.49100
Zn2366     Zn  0.70158632  0.33405928  0.69194456     1.49500
O2367       O  0.70067623  0.33429275  0.66554530    -1.82900
O2368       O  0.75898270  0.36812906  0.64011132    -0.73500
O2369       O  0.66619604  0.36054031  0.64258115    -0.73300
O2370       O  0.67317844  0.27443383  0.64124142    -0.72900
O2371       O  0.73695433  0.39441241  0.64212904    -0.73500
O2372       O  0.72141257  0.29664742  0.64035286    -0.73100
O2373       O  0.64017496  0.31243898  0.64323434    -0.73700
O2374       O  0.66632315  0.29933928  0.70225214    -0.73100
O2375       O  0.70116896  0.39391763  0.67875742    -0.73900
O2376       O  0.64072360  0.27557686  0.67821866    -0.73300
O2377       O  0.70247071  0.36958126  0.70257296    -0.73700
O2378       O  0.73706435  0.33336706  0.70072363    -0.73600
O2379       O  0.76092347  0.33387593  0.67606433    -0.73400
C2380       C  0.75752346  0.39075453  0.63623236     0.78400
C2381       C  0.64357925  0.33690273  0.63831580     0.78900
C2382       C  0.69657854  0.27572846  0.63579739     0.77800
C2383       C  0.64404653  0.27797589  0.69525817     0.78200
C2384       C  0.70167823  0.39117551  0.69579400     0.79300
C2385       C  0.75899203  0.33402367  0.69321549     0.78400
C2386       C  0.88046820  0.35118656  0.42714349     0.04400
C2387       C  0.85471643  0.35254307  0.42614077    -0.11800
C2388       C  0.83165091  0.33295087  0.41523947     0.01900
C2389       C  0.83460948  0.31222769  0.40511627    -0.10300
C2390       C  0.85999912  0.31025184  0.40617113     0.04300
C2391       C  0.88283437  0.32970857  0.41736795    -0.09700
H2392       H  0.85269231  0.36892484  0.43376659     0.09900
H2393       H  0.81694033  0.29741534  0.39646970     0.07500
H2394       H  0.90257329  0.32846165  0.41825737     0.07300
C2395       C  0.51213073  0.16818791  0.40669221     0.04400
C2396       C  0.50820075  0.14406127  0.41667914    -0.11800
C2397       C  0.53073073  0.14611484  0.42763463     0.01900
C2398       C  0.55713712  0.17220509  0.42850794    -0.10300
C2399       C  0.56117113  0.19618641  0.41850065     0.04300
C2400       C  0.53864798  0.19417883  0.40767702    -0.09700
H2401       H  0.98781856  0.12386028  0.41590459     0.09900
H2402       H  0.57472311  0.17367324  0.43670394     0.07500
H2403       H  0.54190011  0.21272552  0.39980537     0.07300
C2404       C  0.71684657  0.01385893  0.40272092     0.04400
C2405       C  0.69637807  0.01723250  0.41304907    -0.11800
C2406       C  0.67409703  0.99349626  0.42225210     0.01900
C2407       C  0.67284320  0.46652158  0.42116089    -0.10300
C2408       C  0.69311943  0.46308082  0.41089671     0.04300
C2409       C  0.71494956  0.48680739  0.40161286    -0.09700
H2410       H  0.69769655  0.03824373  0.41384207     0.09900
H2411       H  0.65615007  0.44817147  0.42846307     0.07500
H2412       H  0.73054492  0.48401999  0.39363015     0.07300
C2413       C  0.67019629  0.30373427  0.41345716     0.81400
N2414       N  0.69629608  0.30474393  0.41361328    -0.76900
C2415       C  0.72123569  0.33041676  0.41175003     0.83900
N2416       N  0.72008837  0.35526229  0.41000923    -0.76800
C2417       C  0.69411192  0.35449289  0.40991021     0.84000
N2418       N  0.66920683  0.32872000  0.41164954    -0.78500
Zn2419     Zn  0.53196252  0.46298207  0.49034040     1.49700
Zn2420     Zn  0.53283703  0.00088145  0.52468495     1.49400
Zn2421     Zn  0.56602842  0.03322440  0.48903077     1.49100
Zn2422     Zn  0.99594803  0.99736523  0.49001752     1.49500
O2423       O  0.53169248  0.99858101  0.49835099    -1.82900
O2424       O  0.53362770  0.44034635  0.51196673    -0.73500
O2425       O  0.56848903  0.03632077  0.53395314    -0.73300
O2426       O  0.58963657  0.02202643  0.47295351    -0.72900
O2427       O  0.53376742  0.46681659  0.53529543    -0.73500
O2428       O  0.56678020  0.47349218  0.47409449    -0.73100
O2429       O  0.59284397  0.05824069  0.50925853    -0.73700
O2430       O  0.50536322  0.03237817  0.47503218    -0.73100
O2431       O  0.99766054  0.00092812  0.53482028    -0.73900
O2432       O  0.55369058  0.05727750  0.47421230    -0.73300
O2433       O  0.97131528  0.99757342  0.51082964    -0.73700
O2434       O  0.97177433  0.46121598  0.47486121    -0.73600
O2435       O  0.99557301  0.43655590  0.47586994    -0.73400
C2436       C  0.53394186  0.44462630  0.52893142     0.78400
C2437       C  0.59074549  0.05675327  0.52639492     0.78900
C2438       C  0.58744335  0.99788105  0.46832851     0.77800
C2439       C  0.52901585  0.05413199  0.46992342     0.78200
C2440       C  0.97505483  0.99944328  0.52784135     0.79300
C2441       C  0.97408787  0.43916026  0.47061361     0.78400
C2442       C  0.86395431  0.01679177  0.26211983     0.04400
C2443       C  0.89030063  0.01668584  0.26299708    -0.11800
C2444       C  0.89402133  0.99611959  0.25331640     0.01900
C2445       C  0.87148434  0.47550723  0.24204376    -0.10300
C2446       C  0.84491769  0.47524776  0.24141232     0.04300
C2447       C  0.84103923  0.99582225  0.25170149    -0.09700
H2448       H  0.90809764  0.03295347  0.27096444     0.09900
H2449       H  0.87430798  0.45961544  0.23439207     0.07500
H2450       H  0.82069721  0.99592822  0.25092812     0.07300
C2451       C  0.71321250  0.16220371  0.26042206     0.04400
C2452       C  0.71553646  0.18492082  0.24959349    -0.11800
C2453       C  0.69142748  0.18175407  0.23984600     0.01900
C2454       C  0.66498302  0.15562963  0.24090893    -0.10300
C2455       C  0.66248433  0.13280092  0.25163081     0.04300
C2456       C  0.68656766  0.13627138  0.26144098    -0.09700
H2457       H  0.73605441  0.20494478  0.24869732     0.09900
H2458       H  0.64642467  0.15295262  0.23324202     0.07500
H2459       H  0.68469675  0.11859267  0.26966966     0.07300
C2460       C  0.51422437  0.31457098  0.26110425     0.04400
C2461       C  0.51378277  0.34078424  0.26150450    -0.11800
C2462       C  0.53438698  0.36485539  0.25185547     0.01900
C2463       C  0.55566518  0.36275164  0.24178414    -0.10300
C2464       C  0.55634750  0.33666762  0.24130241     0.04300
C2465       C  0.53561865  0.31258992  0.25100426    -0.09700
H2466       H  0.99718980  0.34235467  0.26918135     0.09900
H2467       H  0.57142542  0.38125533  0.23414890     0.07500
H2468       H  0.53586976  0.29231213  0.25047725     0.07300
C2469       C  0.55487046  0.02300231  0.25251839     0.81400
N2470       N  0.55555036  0.49774318  0.25167842    -0.76900
C2471       C  0.53028291  0.47202621  0.25179622     0.83900
N2472       N  0.50454753  0.47180924  0.25217832    -0.76800
C2473       C  0.50378063  0.99746273  0.25315070     0.84000
N2474       N  0.52925362  0.02292101  0.25303571    -0.78500
Zn2475     Zn  0.69927148  0.36622702  0.17553131     1.49700
Zn2476     Zn  0.66394274  0.29728009  0.17429373     1.49400
Zn2477     Zn  0.69936394  0.33240124  0.13971659     1.49100
Zn2478     Zn  0.73388589  0.33085842  0.17473756     1.49500
O2479       O  0.69925800  0.33168209  0.16612457    -1.82900
O2480       O  0.66465590  0.35575611  0.19144642    -0.73500
O2481       O  0.63918568  0.27424259  0.15328126    -0.73300
O2482       O  0.69854045  0.36757080  0.13056039    -0.72900
O2483       O  0.63915887  0.30765420  0.18984604    -0.73500
O2484       O  0.69853391  0.39106880  0.15540406    -0.73100
O2485       O  0.66470112  0.29737366  0.12922605    -0.73700
O2486       O  0.75885853  0.33151370  0.15374089    -0.73100
O2487       O  0.67403251  0.27168615  0.18908239    -0.73900
O2488       O  0.73487278  0.33316603  0.12965226    -0.73300
O2489       O  0.72233346  0.29450158  0.18941148    -0.73700
O2490       O  0.75843329  0.36586594  0.19064129    -0.73600
O2491       O  0.73479275  0.39069338  0.19038012    -0.73400
C2492       C  0.64254300  0.33173757  0.19563032     0.78400
C2493       C  0.64221630  0.27643982  0.13623634     0.78900
C2494       C  0.69834097  0.38892174  0.13830427     0.77800
C2495       C  0.75637152  0.33246677  0.13669674     0.78200
C2496       C  0.69780256  0.27332323  0.19402647     0.79300
C2497       C  0.75608914  0.38773676  0.19542238     0.78400
Zn2498     Zn  0.86575389  0.20158976  0.32276053     1.49700
Zn2499     Zn  0.89898826  0.16511003  0.32329432     1.49400
Zn2500     Zn  0.86412450  0.16530548  0.35842079     1.49100
Zn2501     Zn  0.82901097  0.13228021  0.32340748     1.49500
O2502       O  0.86454624  0.16627754  0.33196635    -1.82900
O2503       O  0.90176922  0.22521290  0.30729676    -0.73500
O2504       O  0.92391725  0.16518484  0.34386996    -0.73300
O2505       O  0.86406190  0.20081934  0.36809283    -0.72900
O2506       O  0.92470820  0.19972702  0.30790768    -0.73500
O2507       O  0.86639318  0.22650952  0.34382821    -0.73100
O2508       O  0.89954649  0.16502251  0.36817339    -0.73700
O2509       O  0.80419325  0.10716997  0.34377827    -0.73100
O2510       O  0.88688920  0.12916747  0.30837368    -0.73900
O2511       O  0.82880056  0.12965016  0.36841643    -0.73300
O2512       O  0.83865929  0.10721991  0.30812210    -0.73700
O2513       O  0.80469974  0.14345906  0.30830371    -0.73600
O2514       O  0.83004586  0.19157738  0.30742414    -0.73400
C2515       C  0.92308490  0.22172903  0.30278053     0.78400
C2516       C  0.92142916  0.16516884  0.36094372     0.78900
C2517       C  0.86518588  0.22311781  0.36089326     0.77800
C2518       C  0.80690237  0.10860171  0.36085001     0.78200
C2519       C  0.86229666  0.10839668  0.30347493     0.79300
C2520       C  0.80782169  0.16760263  0.30299024     0.78400
C2521       C  0.53312423  0.39217909  0.25191047    -0.04100
C2522       C  0.51890190  0.39794781  0.23780889    -0.01200
C2523       C  0.51764144  0.42390440  0.23783919     0.03800
C2524       C  0.53088882  0.44436674  0.25190001    -0.04100
C2525       C  0.54488022  0.43840482  0.26609253    -0.01200
C2526       C  0.54583389  0.41230229  0.26614344     0.03800
C2527       C  0.50542108  0.37699851  0.22333320     0.38400
C2528       C  0.55758058  0.45878517  0.28092759     0.38400
C2529       C  0.55976184  0.40601352  0.28088877     0.36800
C2530       C  0.50329060  0.42983081  0.22317862     0.36800
N2531       N  0.57075957  0.40089187  0.29267208    -0.38000
N2532       N  0.49181485  0.43453999  0.21148876    -0.38000
N2533       N  0.56763714  0.47509975  0.29273817    -0.37400
N2534       N  0.49469787  0.36018907  0.21183514    -0.37400
C2535       C  0.99148485  0.28903263  0.27096934    -0.04100
C2536       C  0.96265274  0.27458621  0.26452013    -0.01200
C2537       C  0.94039444  0.25219393  0.27471868     0.03800
C2538       C  0.94681209  0.24401101  0.29144975    -0.04100
C2539       C  0.97600022  0.25740967  0.29739213    -0.01200
C2540       C  0.99820731  0.27999152  0.28724299     0.03800
C2541       C  0.95602964  0.28264397  0.24723701     0.38400
C2542       C  0.98314658  0.24859259  0.31422658     0.38400
C2543       C  0.52787496  0.29459084  0.29380968     0.36800
C2544       C  0.91104265  0.23685319  0.26767040     0.36800
N2545       N  0.55156633  0.30631239  0.29899982    -0.38000
N2546       N  0.88767053  0.22446354  0.26197938    -0.38000
N2547       N  0.98887840  0.24146929  0.32761098    -0.37400
N2548       N  0.95094848  0.28913639  0.23341306    -0.37400
C2549       C  0.57814893  0.33433994  0.22988476    -0.04100
C2550       C  0.57089197  0.32341883  0.21213060    -0.01200
C2551       C  0.59180820  0.32206688  0.20100636     0.03800
C2552       C  0.62018493  0.33191723  0.20753878    -0.04100
C2553       C  0.62736476  0.34257265  0.22535873    -0.01200
C2554       C  0.60640170  0.34382767  0.23649608     0.03800
C2555       C  0.54205235  0.31425306  0.20519551     0.38400
C2556       C  0.65616477  0.35160120  0.23233834     0.38400
C2557       C  0.61389379  0.35498252  0.25474373     0.36800
C2558       C  0.58441354  0.31141497  0.18263901     0.36800
N2559       N  0.61988901  0.36391905  0.26929832    -0.38000
N2560       N  0.57857468  0.30295025  0.16797921    -0.38000
N2561       N  0.67913737  0.35864318  0.23783320    -0.37400
N2562       N  0.51904756  0.30706723  0.19970881    -0.37400
C2563       C  0.58252987  0.05087138  0.25239051    -0.04100
C2564       C  0.60039455  0.05933070  0.23694777    -0.01200
C2565       C  0.62642773  0.08619243  0.23669565     0.03800
C2566       C  0.63488942  0.10462072  0.25195183    -0.04100
C2567       C  0.61721079  0.09592743  0.26750550    -0.01200
C2568       C  0.59097894  0.06921660  0.26766540     0.03800
C2569       C  0.59169742  0.04061080  0.22118552     0.38400
C2570       C  0.62593743  0.11454193  0.28330915     0.38400
C2571       C  0.57290448  0.06026656  0.28367756     0.36800
C2572       C  0.64482112  0.09472162  0.22083200     0.36800
N2573       N  0.55839236  0.05297446  0.29640500    -0.38000
N2574       N  0.65958739  0.10165840  0.20822025    -0.38000
N2575       N  0.63293430  0.12932166  0.29595407    -0.37400
N2576       N  0.58472935  0.02564663  0.20862591    -0.37400
C2577       C  0.69377938  0.20572384  0.22830303    -0.04100
C2578       C  0.71010991  0.21306824  0.21219346    -0.01200
C2579       C  0.71154916  0.23519876  0.20097601     0.03800
C2580       C  0.69670521  0.25019961  0.20581969    -0.04100
C2581       C  0.68048278  0.24290203  0.22199747    -0.01200
C2582       C  0.67903635  0.22077430  0.23317284     0.03800
C2583       C  0.72475137  0.19723051  0.20691119     0.38400
C2584       C  0.66583587  0.25869925  0.22741333     0.38400
C2585       C  0.66272591  0.21378585  0.24988395     0.36800
C2586       C  0.72725275  0.24162230  0.18405439     0.36800
N2587       N  0.64972471  0.20818497  0.26321571    -0.38000
N2588       N  0.73965820  0.24664896  0.17051247    -0.38000
N2589       N  0.65419980  0.27135622  0.23167885    -0.37400
N2590       N  0.73639192  0.18453359  0.20275380    -0.37400
C2591       C  0.73876690  0.16510967  0.27057178    -0.04100
C2592       C  0.75038733  0.18468641  0.28520099    -0.01200
C2593       C  0.77309129  0.18570954  0.29569938     0.03800
C2594       C  0.78478106  0.16753597  0.29144868    -0.04100
C2595       C  0.77359433  0.14847300  0.27647694    -0.01200
C2596       C  0.75071162  0.14727928  0.26611924     0.03800
C2597       C  0.73833626  0.20317047  0.28981341     0.38400
C2598       C  0.78585138  0.13028509  0.27150031     0.38400
C2599       C  0.73963528  0.12791547  0.25067242     0.36800
C2600       C  0.78317503  0.20423243  0.31154232     0.36800
N2601       N  0.73070205  0.11251582  0.23834894    -0.38000
N2602       N  0.79110729  0.21882022  0.32426485    -0.38000
N2603       N  0.79554624  0.11572213  0.26751334    -0.37400
N2604       N  0.72877120  0.21798688  0.29341312    -0.37400
C2605       C  0.97589407  0.99757208  0.25343118    -0.04100
C2606       C  0.95619552  0.48392771  0.26686032    -0.01200
C2607       C  0.92964019  0.48402667  0.26693009     0.03800
C2608       C  0.92238285  0.99707138  0.25357833    -0.04100
C2609       C  0.94257178  0.01126748  0.23963904    -0.01200
C2610       C  0.96931043  0.01160081  0.23957734     0.03800
C2611       C  0.96345578  0.47111749  0.28178426     0.38400
C2612       C  0.93585532  0.02576648  0.22545568     0.38400
C2613       C  0.98973885  0.02579917  0.22500492     0.36800
C2614       C  0.90946270  0.47107488  0.28177685     0.36800
N2615       N  0.50607343  0.03715255  0.21340483    -0.38000
N2616       N  0.89334084  0.46092182  0.29362442    -0.38000
N2617       N  0.93043926  0.03736568  0.21420047    -0.37400
N2618       N  0.96927738  0.46096134  0.29371467    -0.37400
C2619       C  0.82087236  0.45311792  0.23021681    -0.04100
C2620       C  0.81220180  0.46134147  0.21435092    -0.01200
C2621       C  0.79118037  0.43999639  0.20290055     0.03800
C2622       C  0.77845853  0.41025840  0.20735265    -0.04100
C2623       C  0.78650834  0.40217893  0.22355652    -0.01200
C2624       C  0.80758373  0.42354255  0.23494861     0.03800
C2625       C  0.82530594  0.49178099  0.20965124     0.38400
C2626       C  0.77240155  0.37193891  0.22885358     0.38400
C2627       C  0.81508104  0.41520853  0.25184601     0.36800
C2628       C  0.78348851  0.44867085  0.18619777     0.36800
N2629       N  0.82104080  0.40870236  0.26537747    -0.38000
N2630       N  0.77742366  0.45562697  0.17286835    -0.38000
N2631       N  0.76107942  0.34781799  0.23307781    -0.37400
N2632       N  0.83799797  0.01601045  0.20578619    -0.37400
C2633       C  0.86109270  0.08477619  0.29218598    -0.04100
C2634       C  0.87845874  0.09142035  0.27656113    -0.01200
C2635       C  0.87833428  0.06898971  0.26630056     0.03800
C2636       C  0.86117300  0.03983976  0.27171800    -0.04100
C2637       C  0.84288975  0.03306396  0.28689006    -0.01200
C2638       C  0.84275428  0.05547376  0.29708310     0.03800
C2639       C  0.89600840  0.12130310  0.27079072     0.38400
C2640       C  0.82495069  0.00310790  0.29237689     0.38400
C2641       C  0.82464646  0.04836390  0.31305287     0.36800
C2642       C  0.89562845  0.07583771  0.24999343     0.36800
N2643       N  0.81020652  0.04279046  0.32577191    -0.38000
N2644       N  0.90932144  0.08120768  0.23695626    -0.38000
N2645       N  0.81262628  0.47924714  0.29657847    -0.37400
N2646       N  0.90997976  0.14513344  0.26620207    -0.37400
C2647       C  0.69250606  0.43483555  0.41068251    -0.04100
C2648       C  0.70495398  0.42754567  0.42509990    -0.01200
C2649       C  0.70541944  0.40124642  0.42475956     0.03800
C2650       C  0.69325306  0.38195504  0.41004531    -0.04100
C2651       C  0.68034106  0.38899534  0.39573610    -0.01200
C2652       C  0.67995776  0.41542470  0.39606916     0.03800
C2653       C  0.71736317  0.44722099  0.44029070     0.38400
C2654       C  0.66830320  0.36951331  0.38043691     0.38400
C2655       C  0.66649165  0.42263284  0.38148656     0.36800
C2656       C  0.71803223  0.39377633  0.43972732     0.36800
N2657       N  0.65569214  0.42844414  0.36991289    -0.38000
N2658       N  0.72808175  0.38767866  0.45159689    -0.38000
N2659       N  0.65880902  0.35405429  0.36817818    -0.37400
N2660       N  0.72716027  0.46291661  0.45241395    -0.37400
C2661       C  0.74005769  0.03881514  0.39248623    -0.04100
C2662       C  0.76974180  0.04900217  0.39619781    -0.01200
C2663       C  0.79157878  0.07195010  0.38603141     0.03800
C2664       C  0.78398292  0.08504697  0.37205789    -0.04100
C2665       C  0.75426963  0.07486116  0.36842031    -0.01200
C2666       C  0.73249626  0.05188849  0.37853885     0.03800
C2667       C  0.77788998  0.03590405  0.41053266     0.38400
C2668       C  0.74592450  0.08824338  0.35437168     0.38400
C2669       C  0.70217093  0.04105929  0.37418491     0.36800
C2670       C  0.82186915  0.08115442  0.38946676     0.36800
N2671       N  0.67809500  0.53295978  0.37092116    -0.38000
N2672       N  0.84602241  0.08843538  0.39215513    -0.38000
N2673       N  0.73925635  0.09885759  0.34313874    -0.37400
N2674       N  0.78440528  0.02538165  0.42190685    -0.37400
C2675       C  0.60974807  0.99790088  0.45607796    -0.04100
C2676       C  0.60140959  0.48109244  0.44011597    -0.01200
C2677       C  0.62254966  0.48072011  0.42868265     0.03800
C2678       C  0.65219616  0.99665195  0.43325252    -0.04100
C2679       C  0.66072787  0.01424022  0.44890075    -0.01200
C2680       C  0.63962046  0.01491600  0.46023897     0.03800
C2681       C  0.57100484  0.46510380  0.43504239     0.38400
C2682       C  0.69121167  0.03097235  0.45367065     0.38400
C2683       C  0.64866525  0.03225652  0.47660713     0.36800
C2684       C  0.61374312  0.46445339  0.41190383     0.36800
N2685       N  0.65586305  0.04607029  0.48966686    -0.38000
N2686       N  0.60679747  0.45157912  0.39848547    -0.38000
N2687       N  0.71554748  0.04438623  0.45741552    -0.37400
N2688       N  0.54674962  0.45242605  0.43100556    -0.37400
C2689       C  0.64296322  0.27557604  0.41560626    -0.04100
C2690       C  0.63780235  0.25145869  0.40477518    -0.01200
C2691       C  0.61134186  0.22522416  0.40619641     0.03800
C2692       C  0.58980101  0.22297450  0.41828345    -0.04100
C2693       C  0.59532388  0.24644933  0.42970132    -0.01200
C2694       C  0.62191556  0.27266245  0.42845801     0.03800
C2695       C  0.65924805  0.25375998  0.39172774     0.38400
C2696       C  0.57371221  0.24342894  0.44284427     0.38400
C2697       C  0.62800636  0.29621676  0.44087037     0.36800
C2698       C  0.60605579  0.20048657  0.39509384     0.36800
N2699       N  0.63297538  0.31495743  0.45083545    -0.38000
N2700       N  0.60175555  0.18064224  0.38634239    -0.38000
N2701       N  0.55648653  0.24091201  0.45336879    -0.37400
N2702       N  0.67634859  0.25550393  0.38134415    -0.37400
C2703       C  0.98849495  0.16661774  0.39516491    -0.04100
C2704       C  0.98246432  0.15262059  0.37824710    -0.01200
C2705       C  0.96021113  0.15149575  0.36722846     0.03800
C2706       C  0.94461826  0.16562060  0.37270105    -0.04100
C2707       C  0.95161312  0.18054105  0.38948717    -0.01200
C2708       C  0.97297443  0.18046646  0.40076212     0.03800
C2709       C  0.49992102  0.14023383  0.37191786     0.38400
C2710       C  0.93793933  0.19723685  0.39495465     0.38400
C2711       C  0.97918721  0.19483993  0.41819970     0.36800
C2712       C  0.95314137  0.13517614  0.35047005     0.36800
N2713       N  0.98419865  0.20621963  0.43212611    -0.38000
N2714       N  0.94753526  0.12209614  0.33713099    -0.38000
N2715       N  0.92718814  0.21069755  0.39930105    -0.37400
N2716       N  0.51408050  0.13066604  0.36681576    -0.37400
C2717       C  0.52752742  0.12076666  0.43786199    -0.04100
C2718       C  0.51663217  0.11583000  0.45563024    -0.01200
C2719       C  0.51637583  0.09346096  0.46597614     0.03800
C2720       C  0.52772954  0.07647355  0.45873010    -0.04100
C2721       C  0.53796043  0.08096999  0.44080382    -0.01200
C2722       C  0.53765830  0.10294302  0.43035194     0.03800
C2723       C  0.50647849  0.13433253  0.46340755     0.38400
C2724       C  0.54836272  0.06265989  0.43303585     0.38400
C2725       C  0.54801674  0.10746641  0.41189462     0.36800
C2726       C  0.50525065  0.08847780  0.48427049     0.36800
N2727       N  0.55616770  0.11108119  0.39714561    -0.38000
N2728       N  0.49632273  0.08437648  0.49884940    -0.38000
N2729       N  0.55658172  0.04797961  0.42685310    -0.37400
N2730       N  0.49849683  0.14919033  0.46961593    -0.37400
C2731       C  0.80391919  0.33356007  0.41455005    -0.04100
C2732       C  0.78532233  0.32480447  0.42968459    -0.01200
C2733       C  0.75818622  0.32359322  0.42869547     0.03800
C2734       C  0.74964798  0.33152678  0.41266137    -0.04100
C2735       C  0.76835116  0.34065851  0.39760355    -0.01200
C2736       C  0.79533522  0.34149050  0.39850101     0.03800
C2737       C  0.79384014  0.31642497  0.44617565     0.38400
C2738       C  0.75942431  0.34836232  0.38100906     0.38400
C2739       C  0.81433757  0.35058168  0.38291709     0.36800
C2740       C  0.73913507  0.31449611  0.44426779     0.36800
N2741       N  0.82949164  0.35773004  0.37048346    -0.38000
N2742       N  0.72382376  0.30720068  0.45662819    -0.38000
N2743       N  0.75222906  0.35444500  0.36777876    -0.37400
N2744       N  0.80068845  0.30982040  0.45934114    -0.37400
C2745       C  0.86244719  0.28784993  0.39523383    -0.04100
C2746       C  0.84169729  0.25813543  0.39724380    -0.01200
C2747       C  0.84261477  0.23709137  0.38600311     0.03800
C2748       C  0.86452989  0.24542723  0.37278452    -0.04100
C2749       C  0.88570968  0.27500449  0.37105484    -0.01200
C2750       C  0.88460114  0.29613700  0.38215788     0.03800
C2751       C  0.81943457  0.24906907  0.41102232     0.38400
C2752       C  0.90914343  0.28367230  0.35815371     0.38400
C2753       C  0.90590824  0.32651765  0.37977916     0.36800
C2754       C  0.82030116  0.20688091  0.38766024     0.36800
N2755       N  0.92294771  0.35075536  0.37797064    -0.38000
N2756       N  0.80251488  0.18279481  0.38893481    -0.38000
N2757       N  0.92790293  0.29058030  0.34791709    -0.37400
N2758       N  0.80161852  0.24185252  0.42195943    -0.37400
C2759       C  0.95117141  0.41617252  0.45910739    -0.04100
C2760       C  0.94363215  0.42359355  0.44246566    -0.01200
C2761       C  0.92106227  0.40216322  0.43186074     0.03800
C2762       C  0.90542684  0.37321601  0.43791642    -0.04100
C2763       C  0.91329601  0.36560043  0.45433533    -0.01200
C2764       C  0.93620504  0.38695793  0.46484889     0.03800
C2765       C  0.95954668  0.45323208  0.43601761     0.38400
C2766       C  0.89727550  0.33590157  0.46062853     0.38400
C2767       C  0.94358064  0.37904069  0.48192524     0.36800
C2768       C  0.91425022  0.40973932  0.41447355     0.36800
N2769       N  0.94948283  0.37274817  0.49555380    -0.38000
N2770       N  0.90881719  0.41560742  0.40055378    -0.38000
N2771       N  0.88444283  0.31218869  0.46561815    -0.37400
N2772       N  0.97224176  0.47687304  0.43088496    -0.37400
C2773       C  0.86953841  0.11741092  0.58423630    -0.04100
C2774       C  0.85002360  0.09428798  0.57297675    -0.01200
C2775       C  0.84969677  0.06753055  0.57304461     0.03800
C2776       C  0.86887593  0.06356457  0.58425276    -0.04100
C2777       C  0.88886170  0.08669520  0.59513821    -0.01200
C2778       C  0.88924446  0.11349844  0.59516799     0.03800
C2779       C  0.83091371  0.09820131  0.56074566     0.38400
C2780       C  0.90881363  0.08273386  0.60654640     0.38400
C2781       C  0.90947206  0.13664193  0.60690019     0.36800
C2782       C  0.83003996  0.04422400  0.56120881     0.36800
N2783       N  0.92572729  0.15508604  0.61621890    -0.38000
N2784       N  0.81443530  0.02579527  0.55165008    -0.38000
N2785       N  0.92471555  0.07962848  0.61568733    -0.37400
N2786       N  0.81568021  0.10130330  0.55097890    -0.37400
C2787       C  0.82418424  0.45949631  0.60400704    -0.04100
C2788       C  0.83191068  0.44781980  0.61869736    -0.01200
C2789       C  0.81021783  0.42484521  0.62890698     0.03800
C2790       C  0.78050835  0.41363966  0.62473668    -0.04100
C2791       C  0.77285205  0.42486976  0.60976692    -0.01200
C2792       C  0.79457207  0.44747067  0.59938208     0.03800
C2793       C  0.86218341  0.46010225  0.62371749     0.38400
C2794       C  0.74259863  0.41260111  0.60467073     0.38400
C2795       C  0.78641676  0.45784172  0.58360401     0.36800
C2796       C  0.81852280  0.41349175  0.64414644     0.36800
N2797       N  0.77977562  0.46590339  0.57097854    -0.38000
N2798       N  0.82508110  0.40433508  0.65627811    -0.38000
N2799       N  0.71849025  0.40282248  0.60056766    -0.37400
N2800       N  0.88633212  0.46990740  0.62772475    -0.37400
C2801       C  0.91081049  0.50292846  0.56241230    -0.04100
C2802       C  0.94091023  0.02014111  0.56643270    -0.01200
C2803       C  0.96173772  0.01919503  0.55501522     0.03800
C2804       C  0.95288247  0.00038439  0.53985423    -0.04100
C2805       C  0.92263868  0.48244831  0.53617943    -0.01200
C2806       C  0.90187033  0.48405224  0.54736382     0.03800
C2807       C  0.95038487  0.03868328  0.58228373     0.38400
C2808       C  0.91286228  0.46199305  0.52126101     0.38400
C2809       C  0.87122726  0.46683129  0.54306885     0.36800
C2810       C  0.99235224  0.03864657  0.55854438     0.36800
N2811       N  0.84676706  0.45316963  0.53969323    -0.38000
N2812       N  0.51675372  0.05420141  0.56131261    -0.38000
N2813       N  0.90498951  0.44563872  0.50938268    -0.37400
N2814       N  0.95818519  0.05348719  0.59491013    -0.37400
C2815       C  0.97158658  0.27920892  0.58772975    -0.04100
C2816       C  0.95144344  0.27093133  0.60198548    -0.01200
C2817       C  0.92577724  0.24376177  0.60149807     0.03800
C2818       C  0.92034410  0.22461434  0.58683891    -0.04100
C2819       C  0.94072286  0.23284215  0.57267761    -0.01200
C2820       C  0.96612524  0.26019966  0.57304119     0.03800
C2821       C  0.95712505  0.29047559  0.61709849     0.38400
C2822       C  0.93532787  0.21341457  0.55754230     0.38400
C2823       C  0.98679755  0.26885248  0.55832559     0.36800
C2824       C  0.90536724  0.23515268  0.61635162     0.36800
N2825       N  0.50332668  0.27596535  0.54660724    -0.38000
N2826       N  0.88907735  0.22821737  0.62819704    -0.38000
N2827       N  0.93108621  0.19788676  0.54549249    -0.37400
N2828       N  0.96170899  0.30608907  0.62914836    -0.37400
C2829       C  0.57449385  0.33726989  0.60770941    -0.04100
C2830       C  0.58456633  0.31789838  0.60312319    -0.01200
C2831       C  0.60750144  0.31820861  0.61287116     0.03800
C2832       C  0.62050417  0.33778260  0.62741123    -0.04100
C2833       C  0.61093756  0.35774303  0.63166569    -0.01200
C2834       C  0.58805401  0.35749049  0.62182293     0.03800
C2835       C  0.57154799  0.29781907  0.58815370     0.38400
C2836       C  0.62376859  0.37783942  0.64663525     0.38400
C2837       C  0.57781680  0.37743586  0.62662032     0.36800
C2838       C  0.61826590  0.29890019  0.60751284     0.36800
N2839       N  0.56967553  0.39337849  0.63039135    -0.38000
N2840       N  0.62688903  0.28355696  0.60321106    -0.38000
N2841       N  0.63399803  0.39389210  0.65855858    -0.37400
N2842       N  0.56103842  0.28175695  0.57626697    -0.37400
C2843       C  0.53392803  0.42310991  0.54175544    -0.04100
C2844       C  0.55203941  0.41092241  0.53879893    -0.01200
C2845       C  0.55091973  0.38958495  0.55059132     0.03800
C2846       C  0.53215585  0.38070592  0.56564804    -0.04100
C2847       C  0.51523094  0.39396722  0.56916110    -0.01200
C2848       C  0.51581742  0.41480096  0.55719716     0.03800
C2849       C  0.57254096  0.42094601  0.52395836     0.38400
C2850       C  0.99736638  0.38634792  0.58526218     0.38400
C2851       C  0.99693951  0.42688552  0.56058113     0.36800
C2852       C  0.56862436  0.37628086  0.54698118     0.36800
N2853       N  0.98191850  0.43653595  0.56330360    -0.38000
N2854       N  0.58276954  0.36567536  0.54416601    -0.38000
N2855       N  0.98320885  0.38031612  0.59812790    -0.37400
N2856       N  0.58902105  0.42906450  0.51218984    -0.37400
C2857       C  0.81359980  0.16920269  0.58541206    -0.04100
C2858       C  0.79099418  0.15070173  0.59719127    -0.01200
C2859       C  0.76405939  0.15002486  0.59681664     0.03800
C2860       C  0.75944787  0.16767007  0.58464400    -0.04100
C2861       C  0.78196943  0.18631097  0.57298196    -0.01200
C2862       C  0.80892569  0.18704177  0.57329871     0.03800
C2863       C  0.79560687  0.13287221  0.61006092     0.38400
C2864       C  0.77723094  0.20452194  0.56049019     0.38400
C2865       C  0.83139957  0.20537308  0.56062837     0.36800
C2866       C  0.74112518  0.13146255  0.60914699     0.36800
N2867       N  0.84930366  0.21996447  0.55050834    -0.38000
N2868       N  0.72283186  0.11676169  0.61901500    -0.38000
N2869       N  0.77346113  0.21905139  0.55052856    -0.37400
N2870       N  0.79930517  0.11862690  0.62029830    -0.37400
C2871       C  0.69572857  0.20824612  0.60240495    -0.04100
C2872       C  0.67882382  0.20089059  0.61826206    -0.01200
C2873       C  0.67805738  0.22277000  0.62881249     0.03800
C2874       C  0.69491893  0.25228534  0.62384231    -0.04100
C2875       C  0.71054132  0.25937414  0.60745163    -0.01200
C2876       C  0.71071137  0.23742138  0.59671700     0.03800
C2877       C  0.66307710  0.17090486  0.62406845     0.38400
C2878       C  0.72577852  0.28921723  0.60134037     0.38400
C2879       C  0.72600129  0.24476055  0.57963099     0.36800
C2880       C  0.66058882  0.21489323  0.64507252     0.36800
N2881       N  0.73798951  0.25054752  0.56592979    -0.38000
N2882       N  0.64647409  0.20857675  0.65796749    -0.38000
N2883       N  0.73781160  0.31301893  0.59645644    -0.37400
N2884       N  0.65057697  0.14697291  0.62868489    -0.37400
C2885       C  0.65814263  0.12158115  0.56078069    -0.04100
C2886       C  0.64342393  0.09215311  0.56588347    -0.01200
C2887       C  0.62199358  0.07096677  0.55450774     0.03800
C2888       C  0.61464941  0.07907279  0.53794255    -0.04100
C2889       C  0.63012787  0.10860852  0.53268772    -0.01200
C2890       C  0.65174821  0.12964902  0.54404668     0.03800
C2891       C  0.65036230  0.08367799  0.58292904     0.38400
C2892       C  0.62375292  0.11768909  0.51569617     0.38400
C2893       C  0.66801419  0.15967142  0.53834054     0.36800
C2894       C  0.60854688  0.04064936  0.55959947     0.36800
N2895       N  0.68114404  0.18362863  0.53384426    -0.38000
N2896       N  0.59796780  0.01648399  0.56364256    -0.38000
N2897       N  0.61884611  0.12497752  0.50209605    -0.37400
N2898       N  0.65593743  0.07695312  0.59651446    -0.37400
C2899       C  0.53503878  0.05546901  0.75402912    -0.04100
C2900       C  0.52223151  0.06207667  0.73944122    -0.01200
C2901       C  0.52328125  0.08914739  0.73874855     0.03800
C2902       C  0.53724674  0.10980762  0.75256346    -0.04100
C2903       C  0.55048402  0.10347495  0.76698239    -0.01200
C2904       C  0.54917828  0.07629032  0.76780585     0.03800
C2905       C  0.00877837  0.04140528  0.72483495     0.38400
C2906       C  0.56584713  0.12517407  0.78080726     0.38400
C2907       C  0.56165914  0.06943477  0.78311414     0.36800
C2908       C  0.01006733  0.09588455  0.72379016     0.36800
N2909       N  0.57148424  0.06387409  0.79535337    -0.38000
N2910       N  0.99964094  0.10144916  0.71188230    -0.38000
N2911       N  0.57825450  0.14259713  0.79174796    -0.37400
N2912       N  0.99812903  0.02493973  0.71315779    -0.37400
C2913       C  0.62158240  0.25530105  0.70722640    -0.04100
C2914       C  0.59165866  0.24217741  0.70284688    -0.01200
C2915       C  0.57059961  0.22011079  0.71387329     0.03800
C2916       C  0.57907674  0.21119427  0.72952699    -0.04100
C2917       C  0.60875113  0.22463408  0.73416516    -0.01200
C2918       C  0.62990930  0.24640960  0.72307452     0.03800
C2919       C  0.58225750  0.25174254  0.68722566     0.38400
C2920       C  0.61752187  0.21603890  0.75048779     0.38400
C2921       C  0.66033440  0.25881849  0.72779401     0.36800
C2922       C  0.54018319  0.20599983  0.70883471     0.36800
N2923       N  0.68457070  0.26868673  0.73160754    -0.38000
N2924       N  0.51593192  0.19470788  0.70479973    -0.38000
N2925       N  0.62440033  0.20908470  0.76350175    -0.37400
N2926       N  0.57475986  0.25937978  0.67477506    -0.37400
C2927       C  0.99356198  0.16991192  0.77190004    -0.04100
C2928       C  0.96467072  0.15596032  0.76556509    -0.01200
C2929       C  0.94255086  0.15627789  0.77601381     0.03800
C2930       C  0.94919004  0.17066979  0.79287108    -0.04100
C2931       C  0.97824995  0.18513651  0.79903745    -0.01200
C2932       C  0.00034020  0.18468190  0.78859626     0.03800
C2933       C  0.95778535  0.14127774  0.74822851     0.38400
C2934       C  0.98523108  0.19940663  0.81650563     0.38400
C2935       C  0.02992080  0.19860174  0.79527629     0.36800
C2936       C  0.91301834  0.14224459  0.76924040     0.36800
N2937       N  0.05353041  0.20963004  0.80058378    -0.38000
N2938       N  0.88946300  0.13109462  0.76383102    -0.38000
N2939       N  0.99073611  0.21070060  0.83046801    -0.37400
N2940       N  0.45246876  0.12962635  0.73438543    -0.37400
C2941       C  0.58789060  0.00117333  0.75491324    -0.04100
C2942       C  0.59513520  0.98836006  0.76916912    -0.01200
C2943       C  0.62140190  0.98769178  0.76869067     0.03800
C2944       C  0.64049641  0.99981233  0.75396462    -0.04100
C2945       C  0.63407397  0.51335910  0.74050363    -0.01200
C2946       C  0.60784986  0.51406295  0.74094665     0.03800
C2947       C  0.57596291  0.97665461  0.78458229     0.38400
C2948       C  0.65429572  0.52678871  0.72572565     0.38400
C2949       C  0.60071915  0.52739399  0.72625380     0.36800
C2950       C  0.62886652  0.97457329  0.78333925     0.36800
N2951       N  0.59501812  0.53801639  0.71453415    -0.38000
N2952       N  0.63490447  0.96415796  0.79501707    -0.38000
N2953       N  0.67055468  0.53750397  0.71400502    -0.37400
N2954       N  0.56067464  0.96744624  0.79689243    -0.37400
C2955       C  0.74478303  0.04341628  0.77103085    -0.04100
C2956       C  0.75446456  0.03644390  0.78695860    -0.01200
C2957       C  0.77647521  0.05859368  0.79752543     0.03800
C2958       C  0.78915954  0.08794343  0.79216763    -0.04100
C2959       C  0.78020857  0.09476259  0.77583819    -0.01200
C2960       C  0.75810323  0.07258074  0.76532607     0.03800
C2961       C  0.74102035  0.00649510  0.79279281     0.38400
C2962       C  0.79417844  0.12454873  0.76963615     0.38400
C2963       C  0.74915476  0.07968189  0.74851943     0.36800
C2964       C  0.78499862  0.05123598  0.81440061     0.36800
N2965       N  0.74201003  0.08525679  0.73508569    -0.38000
N2966       N  0.79172881  0.04538685  0.82789257    -0.38000
N2967       N  0.80540317  0.14830897  0.76468445    -0.37400
N2968       N  0.73026087  0.98256347  0.79736108    -0.37400
C2969       C  0.69844095  0.45545150  0.73078155    -0.04100
C2970       C  0.71308303  0.46374431  0.71411803    -0.01200
C2971       C  0.71484191  0.44304481  0.70295034     0.03800
C2972       C  0.70094752  0.41341116  0.70801323    -0.04100
C2973       C  0.68580563  0.40512197  0.72468935    -0.01200
C2974       C  0.68482132  0.42610123  0.73603325     0.03800
C2975       C  0.72547108  0.49355646  0.70815748     0.38400
C2976       C  0.67023220  0.37487457  0.73003754     0.38400
C2977       C  0.66962657  0.41746124  0.75314705     0.36800
C2978       C  0.73170221  0.45266346  0.68646546     0.36800
N2979       N  0.65747679  0.41057125  0.76677979    -0.38000
N2980       N  0.74522292  0.46040817  0.67334708    -0.38000
N2981       N  0.65778810  0.35077120  0.73432352    -0.37400
N2982       N  0.73577609  0.01733752  0.70330435    -0.37400
C2983       C  0.92770403  0.39522340  0.75245283    -0.04100
C2984       C  0.95075902  0.39982602  0.74092855    -0.01200
C2985       C  0.97740326  0.42610646  0.74177452     0.03800
C2986       C  0.98121186  0.44805875  0.75422003    -0.04100
C2987       C  0.95814063  0.44312240  0.76596325    -0.01200
C2988       C  0.93152585  0.41679139  0.76507038     0.03800
C2989       C  0.94696505  0.37741661  0.72815868     0.38400
C2990       C  0.96206197  0.46464450  0.77945382     0.38400
C2991       C  0.90810974  0.41160102  0.77733168     0.36800
C2992       C  0.00058182  0.43073821  0.72945217     0.36800
N2993       N  0.88940131  0.40730335  0.78712697    -0.38000
N2994       N  0.01910501  0.43441358  0.71966069    -0.38000
N2995       N  0.96521315  0.48178348  0.79024550    -0.37400
N2996       N  0.94388373  0.35948005  0.71801196    -0.37400
C2997       C  0.86557935  0.29199946  0.77095560    -0.04100
C2998       C  0.85212331  0.28591707  0.78804001    -0.01200
C2999       C  0.85151348  0.26372619  0.79881016     0.03800
C3000       C  0.86428945  0.24744301  0.79249548    -0.04100
C3001       C  0.87679883  0.25289301  0.77511105    -0.01200
C3002       C  0.87736059  0.27504448  0.76437149     0.03800
C3003       C  0.83939370  0.30289770  0.79463685     0.38400
C3004       C  0.88866971  0.23534992  0.76814288     0.38400
C3005       C  0.88995398  0.28040049  0.74646174     0.36800
C3006       C  0.83889378  0.25853245  0.81670939     0.36800
N3007       N  0.89984571  0.28469127  0.73213181    -0.38000
N3008       N  0.82892502  0.25443677  0.83101626    -0.38000
N3009       N  0.89806398  0.22128109  0.76259900    -0.37400
N3010       N  0.82917621  0.31642755  0.79983081    -0.37400
C3011       C  0.82703298  0.33737174  0.72758615    -0.04100
C3012       C  0.81037159  0.34990019  0.73333854    -0.01200
C3013       C  0.78872321  0.34936567  0.72203290     0.03800
C3014       C  0.78281930  0.33542761  0.70488725    -0.04100
C3015       C  0.79973106  0.32280987  0.69921750    -0.01200
C3016       C  0.82169203  0.32385766  0.71052746     0.03800
C3017       C  0.81532914  0.36308924  0.75111338     0.38400
C3018       C  0.79448311  0.30826614  0.68189171     0.38400
C3019       C  0.83902223  0.31111808  0.70459749     0.36800
C3020       C  0.77344251  0.36428684  0.72798340     0.36800
N3021       N  0.85287951  0.30096108  0.69994180    -0.38000
N3022       N  0.76132973  0.37623282  0.73275465    -0.38000
N3023       N  0.79047663  0.29675039  0.66804840    -0.37400
N3024       N  0.81920738  0.37344272  0.76532421    -0.37400
C3025       C  0.99356792  0.29495320  0.89407485    -0.04100
C3026       C  0.97991968  0.26561162  0.89941679    -0.01200
C3027       C  0.95757882  0.24384788  0.88881087     0.03800
C3028       C  0.94807281  0.25120977  0.87283507    -0.04100
C3029       C  0.96158166  0.28080166  0.86767047    -0.01200
C3030       C  0.98430612  0.30244709  0.87817189     0.03800
C3031       C  0.98883971  0.25778224  0.91597724     0.38400
C3032       C  0.95190485  0.28928022  0.85169869     0.38400
C3033       C  0.49876150  0.33243964  0.87234489     0.36800
C3034       C  0.94540560  0.21372057  0.89404861     0.36800
N3035       N  0.51039028  0.35636829  0.86770471    -0.38000
N3036       N  0.93581178  0.18971050  0.89822537    -0.38000
N3037       N  0.94424964  0.29609387  0.83895163    -0.37400
N3038       N  0.99595430  0.25156651  0.92918680    -0.37400
C3039       C  0.53540057  0.38103490  0.93672288    -0.04100
C3040       C  0.51292631  0.37292725  0.94957818    -0.01200
C3041       C  0.51203563  0.39412825  0.96075591     0.03800
C3042       C  0.53375407  0.42356255  0.95935966    -0.04100
C3043       C  0.55592842  0.43176035  0.94637531    -0.01200
C3044       C  0.55657786  0.41072134  0.93499413     0.03800
C3045       C  0.99111512  0.34267629  0.95174418     0.38400
C3046       C  0.57888392  0.46178992  0.94521050     0.38400
C3047       C  0.57911765  0.41982897  0.92140318     0.36800
C3048       C  0.98840169  0.38570573  0.97348636     0.36800
N3049       N  0.59721472  0.42716050  0.91064974    -0.38000
N3050       N  0.96953267  0.37906166  0.98360711    -0.38000
N3051       N  0.59720358  0.48572220  0.94438127    -0.37400
N3052       N  0.97361651  0.31856766  0.95343858    -0.37400
C3053       C  0.64898664  0.33785352  0.91978234    -0.04100
C3054       C  0.64464993  0.35436410  0.90647502    -0.01200
C3055       C  0.61790127  0.35400501  0.90538817     0.03800
C3056       C  0.59517524  0.33680962  0.91736903    -0.04100
C3057       C  0.59936753  0.32023030  0.93058328    -0.01200
C3058       C  0.62626588  0.32097465  0.93193185     0.03800
C3059       C  0.66737156  0.37109595  0.89353798     0.38400
C3060       C  0.57594967  0.30250954  0.94286296     0.38400
C3061       C  0.63090584  0.30529787  0.94632474     0.36800
C3062       C  0.61370576  0.37135670  0.89193758     0.36800
N3063       N  0.63468192  0.29294361  0.95786986    -0.38000
N3064       N  0.61036173  0.38522283  0.88122790    -0.38000
N3065       N  0.55720038  0.28834339  0.95260967    -0.37400
N3066       N  0.68550248  0.38439306  0.88321436    -0.37400
C3067       C  0.70333698  0.28482513  0.92073234    -0.04100
C3068       C  0.71162398  0.27466319  0.93588937    -0.01200
C3069       C  0.71142816  0.24797763  0.93503115     0.03800
C3070       C  0.70326703  0.23146436  0.91892629    -0.04100
C3071       C  0.69575385  0.24209873  0.90361435    -0.01200
C3072       C  0.69553717  0.26855707  0.90457490     0.03800
C3073       C  0.71980484  0.29142751  0.95247855     0.38400
C3074       C  0.68791558  0.22564926  0.88690520     0.38400
C3075       C  0.68766132  0.27930851  0.88884423     0.36800
C3076       C  0.72004571  0.23768352  0.95064570     0.36800
N3077       N  0.68138758  0.28798277  0.87634387    -0.38000
N3078       N  0.72689984  0.22940097  0.96307901    -0.38000
N3079       N  0.68184458  0.21260061  0.87354803    -0.37400
N3080       N  0.72632382  0.30484135  0.96569863    -0.37400
C3081       C  0.74245127  0.16848106  0.89616949    -0.04100
C3082       C  0.77187410  0.18378826  0.90148090    -0.01200
C3083       C  0.79357871  0.18336380  0.89060356     0.03800
C3084       C  0.78606120  0.16683024  0.87442304    -0.04100
C3085       C  0.75628519  0.15030312  0.86962865    -0.01200
C3086       C  0.73471949  0.15148167  0.88030570     0.03800
C3087       C  0.77980902  0.19994445  0.91832091     0.38400
C3088       C  0.74755075  0.13141507  0.85393974     0.38400
C3089       C  0.70457183  0.13579080  0.87468487     0.36800
C3090       C  0.82376381  0.20105098  0.89585046     0.36800
N3091       N  0.68052241  0.12333543  0.87019365    -0.38000
N3092       N  0.84781539  0.21522079  0.90006339    -0.38000
N3093       N  0.74054513  0.11625149  0.84147022    -0.37400
N3094       N  0.78599565  0.21270532  0.93178709    -0.37400
C3095       C  0.61430956  0.08347345  0.96117798    -0.04100
C3096       C  0.60574213  0.09623055  0.94750610    -0.01200
C3097       C  0.62673487  0.11824291  0.93641498     0.03800
C3098       C  0.65662467  0.12783612  0.93880746    -0.04100
C3099       C  0.66519215  0.11519841  0.95252858    -0.01200
C3100       C  0.64419642  0.09323769  0.96367154     0.03800
C3101       C  0.57530607  0.08754650  0.94525889     0.38400
C3102       C  0.69576966  0.12536739  0.95554888     0.38400
C3103       C  0.65344425  0.08037658  0.97753724     0.36800
C3104       C  0.61744533  0.13096935  0.92246551     0.36800
N3105       N  0.66083084  0.07016789  0.98862842    -0.38000
N3106       N  0.61002495  0.14124212  0.91143322    -0.38000
N3107       N  0.72018119  0.13348930  0.95788141    -0.37400
N3108       N  0.55104650  0.08064966  0.94350745    -0.37400
C3109       C  0.80836035  0.44538160  0.91992483    -0.04100
C3110       C  0.80370039  0.42266081  0.90805489    -0.01200
C3111       C  0.77758955  0.39593548  0.90882390     0.03800
C3112       C  0.75602677  0.39164847  0.92164861    -0.04100
C3113       C  0.76088654  0.41446878  0.93361931    -0.01200
C3114       C  0.78691655  0.44130088  0.93266605     0.03800
C3115       C  0.82574589  0.42696922  0.89489248     0.38400
C3116       C  0.73957376  0.41010777  0.94733015     0.38400
C3117       C  0.79179268  0.46475509  0.94485119     0.36800
C3118       C  0.77258503  0.37325882  0.89594104     0.36800
N3119       N  0.79574573  0.48353388  0.95452486    -0.38000
N3120       N  0.76854960  0.35516364  0.88566531    -0.38000
N3121       N  0.72263294  0.40663037  0.95831211    -0.37400
N3122       N  0.84333065  0.43045584  0.88438700    -0.37400
C3123       C  0.86624360  0.04606483  0.89658554    -0.04100
C3124       C  0.85004656  0.05980738  0.90096963    -0.01200
C3125       C  0.85076141  0.08143767  0.88962906     0.03800
C3126       C  0.86807345  0.08993010  0.87382660    -0.04100
C3127       C  0.88427962  0.07603111  0.86946124    -0.01200
C3128       C  0.88338090  0.05427706  0.88081599     0.03800
C3129       C  0.83266858  0.05175389  0.91728288     0.38400
C3130       C  0.90218888  0.08416837  0.85338493     0.38400
C3131       C  0.89960527  0.03979468  0.87605570     0.36800
C3132       C  0.83247924  0.09389579  0.89388766     0.36800
N3133       N  0.91145155  0.52721415  0.87128271    -0.38000
N3134       N  0.81782754  0.10375325  0.89724290    -0.38000
N3135       N  0.91638306  0.09047528  0.84052497    -0.37400
N3136       N  0.81880342  0.04531946  0.93028279    -0.37400
C3137       C  0.91102366  0.00497864  0.93884915    -0.04100
C3138       C  0.92179949  0.02371799  0.95390659    -0.01200
C3139       C  0.94431237  0.52394155  0.96457846     0.03800
C3140       C  0.95572339  0.00607221  0.96039665    -0.04100
C3141       C  0.94532789  0.98781600  0.94502520    -0.01200
C3142       C  0.92319217  0.98738889  0.93429418     0.03800
C3143       C  0.90883539  0.54056581  0.95887630     0.38400
C3144       C  0.95648807  0.96848812  0.94056804     0.38400
C3145       C  0.91280032  0.96865856  0.91854003     0.36800
C3146       C  0.95503973  0.54340912  0.97998159     0.36800
N3147       N  0.90452124  0.95367500  0.90600386    -0.38000
N3148       N  0.96359045  0.55895971  0.99225400    -0.38000
N3149       N  0.46540539  0.95310045  0.93701415    -0.37400
N3150       N  0.89821895  0.55429668  0.96287176    -0.37400
C3151       C  0.75555171  0.06031110  0.08626820    -0.04100
C3152       C  0.77343782  0.06701290  0.07090043    -0.01200
C3153       C  0.80014201  0.09311724  0.07024586     0.03800
C3154       C  0.80887127  0.11276114  0.08486986    -0.04100
C3155       C  0.79080488  0.10623555  0.10014346    -0.01200
C3156       C  0.76432377  0.07989465  0.10092276     0.03800
C3157       C  0.76447047  0.04681514  0.05586556     0.38400
C3158       C  0.79975295  0.12639629  0.11519757     0.38400
C3159       C  0.74604899  0.07291317  0.11677953     0.36800
C3160       C  0.81834717  0.10008715  0.05435414     0.36800
N3161       N  0.73149898  0.06725370  0.12944726    -0.38000
N3162       N  0.83288829  0.10570621  0.04168449    -0.38000
N3163       N  0.80694201  0.14256619  0.12715787    -0.37400
N3164       N  0.75719930  0.03064962  0.04390117    -0.37400
C3165       C  0.69977477  0.45780769  0.10676222    -0.04100
C3166       C  0.68062459  0.44615893  0.12152272    -0.01200
C3167       C  0.67974729  0.42330033  0.13163261     0.03800
C3168       C  0.69825849  0.41208086  0.12715985    -0.04100
C3169       C  0.71716610  0.42354212  0.11221197    -0.01200
C3170       C  0.71797089  0.44636023  0.10211092     0.03800
C3171       C  0.66232262  0.45822730  0.12661248     0.38400
C3172       C  0.73644853  0.41246312  0.10743459     0.38400
C3173       C  0.73754852  0.45803247  0.08685420     0.36800
C3174       C  0.65911102  0.41079811  0.14631552     0.36800
N3175       N  0.75327336  0.46746304  0.07475772    -0.38000
N3176       N  0.64260212  0.40077530  0.15798825    -0.38000
N3177       N  0.75172578  0.40353863  0.10358904    -0.37400
N3178       N  0.64775766  0.46789917  0.13063665    -0.37400
C3179       C  0.60953646  0.49763769  0.04348317    -0.04100
C3180       C  0.62056536  0.47868409  0.03984812    -0.01200
C3181       C  0.64250149  0.47920903  0.05087493     0.03800
C3182       C  0.65321436  0.49830190  0.06578034    -0.04100
C3183       C  0.64041942  0.01707804  0.07057038    -0.01200
C3184       C  0.61904235  0.01687023  0.05919165     0.03800
C3185       C  0.61022455  0.45938223  0.02435801     0.38400
C3186       C  0.64969876  0.03536172  0.08655304     0.38400
C3187       C  0.60692981  0.03544470  0.06344908     0.36800
C3188       C  0.65470571  0.46075828  0.04651742     0.36800
N3189       N  0.59732735  0.05029205  0.06687546    -0.38000
N3190       N  0.66437918  0.44597398  0.04309129    -0.38000
N3191       N  0.65711132  0.04977007  0.09936293    -0.37400
N3192       N  0.60187187  0.44389184  0.01205158    -0.37400
C3193       C  0.86370336  0.21927459  0.08272982    -0.04100
C3194       C  0.84848852  0.22468837  0.06905141    -0.01200
C3195       C  0.84947912  0.25169032  0.06829613     0.03800
C3196       C  0.86595435  0.27348801  0.08103541    -0.04100
C3197       C  0.88114087  0.26815758  0.09470131    -0.01200
C3198       C  0.87987370  0.24103476  0.09563285     0.03800
C3199       C  0.83227408  0.20272382  0.05552252     0.38400
C3200       C  0.89770343  0.29050193  0.10795200     0.38400
C3201       C  0.89412270  0.23507603  0.11034929     0.26000
C3202       C  0.83324896  0.25700973  0.05455836     0.36800
N3203       N  0.90529295  0.23019676  0.12214385    -0.38000
N3204       N  0.82025411  0.26131406  0.04366978    -0.38000
N3205       N  0.91088780  0.30837283  0.11849942    -0.37400
N3206       N  0.81934474  0.18518602  0.04474157    -0.37400
C3207       C  0.82135755  0.33176590  0.10170482    -0.04100
C3208       C  0.79152020  0.31302261  0.09825010    -0.01200
C3209       C  0.77035124  0.31319280  0.10971694     0.03800
C3210       C  0.77878867  0.33239703  0.12463458    -0.04100
C3211       C  0.80862180  0.35144815  0.12790362    -0.01200
C3212       C  0.82979154  0.35092222  0.11659369     0.03800
C3213       C  0.78253301  0.29333785  0.08292830     0.38400
C3214       C  0.81764427  0.37206938  0.14270626     0.38400
C3215       C  0.86032524  0.36929597  0.12075127     0.36800
C3216       C  0.73988288  0.29264594  0.10656165     0.36800
N3217       N  0.88467005  0.38387037  0.12412963    -0.38000
N3218       N  0.71559551  0.27622155  0.10410363    -0.38000
N3219       N  0.82489774  0.38858693  0.15447795    -0.37400
N3220       N  0.77532437  0.27753375  0.07077348    -0.37400
C3221       C  0.90749801  0.37575968  0.05982304    -0.04100
C3222       C  0.93289074  0.39730262  0.06836281    -0.01200
C3223       C  0.95462993  0.42022313  0.05820687     0.03800
C3224       C  0.95108022  0.42172486  0.03946712    -0.04100
C3225       C  0.92561937  0.40031480  0.03093582    -0.01200
C3226       C  0.90392293  0.37731809  0.04107946     0.03800
C3227       C  0.93704927  0.39534672  0.08751232     0.38400
C3228       C  0.92214204  0.40158424  0.01162927     0.38400
C3229       C  0.87812254  0.35492709  0.03220977     0.36800
C3230       C  0.98082402  0.44215781  0.06699031     0.36800
N3231       N  0.85756152  0.33696353  0.02516504    -0.38000
N3232       N  0.50174744  0.45965774  0.07397001    -0.38000
N3233       N  0.91946701  0.40263430  0.99621830    -0.37400
N3234       N  0.94049072  0.39372203  0.10276801    -0.37400
C3235       C  0.97002363  0.16639076  0.08220191    -0.04100
C3236       C  0.94880064  0.14910509  0.09497919    -0.01200
C3237       C  0.92178373  0.14824118  0.09526623     0.03800
C3238       C  0.91569253  0.16419405  0.08246736    -0.04100
C3239       C  0.93661185  0.18049048  0.06920359    -0.01200
C3240       C  0.96385860  0.18194377  0.06927081     0.03800
C3241       C  0.95486811  0.13224560  0.10782163     0.38400
C3242       C  0.92969334  0.19480408  0.05500340     0.38400
C3243       C  0.98560637  0.19935121  0.05597716     0.36800
C3244       C  0.90068959  0.13163399  0.10907296     0.36800
N3245       N  0.50303748  0.21324949  0.04542502    -0.38000
N3246       N  0.88387092  0.11839520  0.12009194    -0.38000
N3247       N  0.92401403  0.20598607  0.04361357    -0.37400
N3248       N  0.95974404  0.11871585  0.11797587    -0.37400
C3249       C  0.57322777  0.21245758  0.10260381    -0.04100
C3250       C  0.57871143  0.20464146  0.11964048    -0.01200
C3251       C  0.60147900  0.22525086  0.13045185     0.03800
C3252       C  0.61890654  0.25422480  0.12436958    -0.04100
C3253       C  0.61341860  0.26178420  0.10701387    -0.01200
C3254       C  0.59073140  0.24088706  0.09621214     0.03800
C3255       C  0.56062474  0.17522836  0.12609457     0.38400
C3256       C  0.63036904  0.29116708  0.10027050     0.38400
C3257       C  0.58535193  0.24854246  0.07842742     0.36800
C3258       C  0.60711183  0.21608650  0.14766529     0.36800
N3259       N  0.58105161  0.25455590  0.06422846    -0.38000
N3260       N  0.61145871  0.20869008  0.16140051    -0.38000
N3261       N  0.64385876  0.31453554  0.09479381    -0.37400
N3262       N  0.54614367  0.15176989  0.13118438    -0.37400
C3263       C  0.53507912  0.08288510  0.04112490    -0.04100
C3264       C  0.54066548  0.10902348  0.03282905    -0.01200
C3265       C  0.53957839  0.13087626  0.04306848     0.03800
C3266       C  0.53257303  0.12646119  0.06154995    -0.04100
C3267       C  0.52762801  0.10060849  0.06993979    -0.01200
C3268       C  0.52901708  0.07886580  0.05974005     0.03800
C3269       C  0.54666595  0.11302587  0.01364686     0.38400
C3270       C  0.52072843  0.09630168  0.08900375     0.38400
C3271       C  0.52440870  0.05245515  0.06838162     0.36800
C3272       C  0.54540515  0.15783016  0.03461267     0.36800
N3273       N  0.52086884  0.03144559  0.07529541    -0.38000
N3274       N  0.55012844  0.17940671  0.02794660    -0.38000
N3275       N  0.51519547  0.09293047  0.10420848    -0.37400
N3276       N  0.55133786  0.11609858  0.99833282    -0.37400
C3277       C  0.54896604  0.69075716  0.09196465     0.04400
C3278       C  0.52199172  0.68963593  0.09190549    -0.11800
C3279       C  0.49860504  0.66764468  0.08237313     0.01900
C3280       C  0.50226206  0.64687552  0.07282983    -0.10300
C3281       C  0.52918836  0.64792315  0.07280581     0.04300
C3282       C  0.55253033  0.66990879  0.08237596    -0.09700
H3283       H  0.51909925  0.70556347  0.09945697     0.09900
H3284       H  0.98414816  0.62987653  0.06544662     0.07500
H3285       H  0.57327003  0.67056336  0.08256754     0.07300
C3286       C  0.88483723  0.85072862  0.07045974     0.04400
C3287       C  0.88551556  0.82464758  0.07067491    -0.11800
C3288       C  0.86524141  0.80117303  0.08087738     0.01900
C3289       C  0.84426560  0.80372379  0.09090300    -0.10300
C3290       C  0.84309926  0.82952935  0.09070400     0.04300
C3291       C  0.86352046  0.85310301  0.08043383    -0.09700
H3292       H  0.90186200  0.82267407  0.06299179     0.09900
H3293       H  0.82883366  0.78555418  0.09893249     0.07500
H3294       H  0.86291318  0.87320343  0.08026587     0.07300
C3295       C  0.69981477  0.98296175  0.09765010     0.04400
C3296       C  0.72675512  0.50919552  0.09621466    -0.11800
C3297       C  0.72860150  0.53209399  0.08595113     0.01900
C3298       C  0.70460613  0.52823507  0.07593796    -0.10300
C3299       C  0.67770127  0.00241485  0.07732410     0.04300
C3300       C  0.67577808  0.97943458  0.08767254    -0.09700
H3301       H  0.74538070  0.51222786  0.10395622     0.09900
H3302       H  0.70613380  0.54600453  0.06795939     0.07500
H3303       H  0.65574443  0.95883781  0.08786370     0.07300
C3304       C  0.83710474  0.64037039  0.08414439     0.81400
N3305       N  0.86234797  0.63966057  0.08375326    -0.76900
C3306       C  0.88814963  0.66473082  0.08316909     0.83900
N3307       N  0.88859744  0.69052208  0.08287946    -0.76800
C3308       C  0.86344489  0.69137008  0.08323780     0.84000
N3309       N  0.83770436  0.66623113  0.08388203    -0.78500
C3310       C  0.86492711  0.52240497  0.90785343     0.04400
C3311       C  0.83770208  0.99578871  0.90887695    -0.11800
C3312       C  0.83527116  0.97294240  0.91948845     0.01900
C3313       C  0.85923349  0.97627170  0.92929854    -0.10300
C3314       C  0.88667061  0.50237207  0.92809789     0.04300
C3315       C  0.88902538  0.52539954  0.91756618    -0.09700
H3316       H  0.81914531  0.99306341  0.90117999     0.09900
H3317       H  0.85728216  0.95851210  0.93747652     0.07500
H3318       H  0.90949622  0.54551420  0.91691268     0.07300
C3319       C  0.67941269  0.65230034  0.92770048     0.04400
C3320       C  0.68108224  0.67954826  0.92822748    -0.11800
C3321       C  0.70182699  0.70271980  0.91799227     0.01900
C3322       C  0.72145129  0.69873689  0.90733094    -0.10300
C3323       C  0.72046333  0.67179063  0.90679638     0.04300
C3324       C  0.69917081  0.64851835  0.91686431    -0.09700
H3325       H  0.66617180  0.68276093  0.93665007     0.09900
H3326       H  0.73774265  0.71673687  0.89958722     0.07500
H3327       H  0.69826881  0.62768030  0.91647979     0.07300
C3328       C  0.72757642  0.86330721  0.92182649     0.81400
N3329       N  0.72759406  0.83770822  0.92189598    -0.76900
C3330       C  0.70222545  0.81221106  0.92101016     0.83900
N3331       N  0.67671304  0.81233467  0.92000824    -0.76800
C3332       C  0.67643720  0.83781665  0.92011997     0.84000
N3333       N  0.70194952  0.86322055  0.92097371    -0.78500
C3334       C  0.51799726  0.81857778  0.90448055     0.04400
C3335       C  0.54427600  0.81820362  0.90499709    -0.11800
C3336       C  0.56733901  0.83821746  0.91567910     0.01900
C3337       C  0.56405079  0.85851989  0.92601446    -0.10300
C3338       C  0.53810555  0.85953932  0.92546760     0.04300
C3339       C  0.51509704  0.83951619  0.91456753    -0.09700
H3340       H  0.54666444  0.80215592  0.89723056     0.09900
H3341       H  0.58177581  0.87357163  0.93454042     0.07500
H3342       H  0.99491703  0.83997872  0.91409894     0.07300
Zn3343     Zn  0.53504587  0.50373473  0.97478352     1.49700
Zn3344     Zn  0.56945454  0.53632473  0.01029605     1.49400
Zn3345     Zn  0.99929546  0.50302418  0.00986883     1.49100
Zn3346     Zn  0.53200674  0.96664524  0.00967414     1.49500
O3347       O  0.53404519  0.50242823  0.00116930    -1.82900
O3348       O  0.57063749  0.53922137  0.96542262    -0.73500
O3349       O  0.55907916  0.56140751  0.02552321    -0.73300
O3350       O  0.97578567  0.50507105  0.98908651    -0.72900
O3351       O  0.59545853  0.56179430  0.99001081    -0.73500
O3352       O  0.50045380  0.50511835  0.96487745    -0.73100
O3353       O  0.51076128  0.53790255  0.02576407    -0.73700
O3354       O  0.99558332  0.94179640  0.02399873    -0.73100
O3355       O  0.59214216  0.52362365  0.02611021    -0.73900
O3356       O  0.97234094  0.96702673  0.02442328    -0.73300
O3357       O  0.56593303  0.97573265  0.02602429    -0.73700
O3358       O  0.53256680  0.94258145  0.98860189    -0.73600
O3359       O  0.53390666  0.96825162  0.96463365    -0.73400
C3360       C  0.59259094  0.56027616  0.97291078     0.78400
C3361       C  0.53509398  0.55920423  0.03053869     0.78900
C3362       C  0.97883889  0.50556437  0.97203168     0.77800
C3363       C  0.97411727  0.94476121  0.02872938     0.78200
C3364       C  0.58770502  0.99930302  0.03138501     0.79300
C3365       C  0.53324787  0.94602509  0.97157992     0.78400
C3366       C  0.86898715  0.81746574  0.76037334     0.04400
C3367       C  0.89529060  0.84373623  0.76133531    -0.11800
C3368       C  0.89941557  0.86764280  0.75114315     0.01900
C3369       C  0.87705404  0.86525883  0.73993519    -0.10300
C3370       C  0.85063945  0.83904185  0.73885002     0.04300
C3371       C  0.84669758  0.81515989  0.74909578    -0.09700
H3372       H  0.91256191  0.84551860  0.76994334     0.09900
H3373       H  0.88016992  0.88370934  0.73209954     0.07500
H3374       H  0.82627416  0.79481293  0.74832200     0.07300
C3375       C  0.71949827  0.52061202  0.76146886     0.04400
C3376       C  0.69299477  0.52037147  0.76265819    -0.11800
C3377       C  0.66834570  0.49891054  0.75381960     0.01900
C3378       C  0.66984534  0.97758154  0.74324438    -0.10300
C3379       C  0.69618986  0.97746083  0.74200853     0.04300
C3380       C  0.72120936  0.49907398  0.75130979    -0.09700
H3381       H  0.69158139  0.53700209  0.77040984     0.09900
H3382       H  0.65088328  0.96129083  0.73611701     0.07500
H3383       H  0.74167570  0.49926069  0.75026019     0.07300
C3384       C  0.55723311  0.68668422  0.74071840     0.04400
C3385       C  0.55732217  0.66028655  0.74143015    -0.11800
C3386       C  0.53736971  0.63760364  0.75228643     0.01900
C3387       C  0.51703504  0.64120341  0.76239153    -0.10300
C3388       C  0.51645101  0.66729783  0.76166977     0.04300
C3389       C  0.53664477  0.69008958  0.75086018    -0.09700
H3390       H  0.57295096  0.65740725  0.73354696     0.09900
H3391       H  0.00142010  0.62354961  0.77067110     0.07500
H3392       H  0.53632698  0.71032450  0.75033576     0.07300
C3393       C  0.50887377  0.97610934  0.75461614     0.81400
N3394       N  0.53447278  0.97605528  0.75509386    -0.76900
C3395       C  0.56039203  0.50137162  0.75564042     0.83900
N3396       N  0.56034430  0.52691007  0.75529035    -0.76800
C3397       C  0.53491416  0.52722141  0.75481333     0.84000
N3398       N  0.50937617  0.50174250  0.75451714    -0.78500
Zn3399     Zn  0.90199507  0.70462899  0.82364701     1.49700
Zn3400     Zn  0.86835222  0.67046914  0.85932149     1.49400
Zn3401     Zn  0.83196911  0.66844012  0.82434929     1.49100
Zn3402     Zn  0.86892661  0.63511591  0.82413640     1.49500
O3403       O  0.86777482  0.66965657  0.83283305    -1.82900
O3404       O  0.92680564  0.73032294  0.84410736    -0.73500
O3405       O  0.83189101  0.66860710  0.86947152    -0.73300
O3406       O  0.84141132  0.70411969  0.80960281    -0.72900
O3407       O  0.90316300  0.70719461  0.86875453    -0.73500
O3408       O  0.88969544  0.72800793  0.80809374    -0.73100
O3409       O  0.80658701  0.66714897  0.84534828    -0.73700
O3410       O  0.83382789  0.60979258  0.80885324    -0.73100
O3411       O  0.87014513  0.63587956  0.86920858    -0.73900
O3412       O  0.80847055  0.63292146  0.80854718    -0.73300
O3413       O  0.86888938  0.61054933  0.84501058    -0.73700
O3414       O  0.90473807  0.64625099  0.80885857    -0.73600
O3415       O  0.92780507  0.69448971  0.80874682    -0.73400
C3416       C  0.92462670  0.72869329  0.86122564     0.78400
C3417       C  0.80942895  0.66746104  0.86243144     0.78900
C3418       C  0.86514863  0.72540745  0.80406961     0.77800
C3419       C  0.81185852  0.61164243  0.80381317     0.78200
C3420       C  0.86954292  0.61367964  0.86208173     0.79300
C3421       C  0.92603760  0.67054329  0.80407752     0.78400
C3422       C  0.68107591  0.64376475  0.57234691     0.04400
C3423       C  0.67679468  0.66446254  0.58172130    -0.11800
C3424       C  0.69933425  0.68606296  0.59213641     0.01900
C3425       C  0.72612810  0.68681036  0.59309675    -0.10300
C3426       C  0.73047772  0.66622000  0.58384232     0.04300
C3427       C  0.70792676  0.64471170  0.57353579    -0.09700
H3428       H  0.65615609  0.66392815  0.58077232     0.09900
H3429       H  0.74364499  0.70348213  0.60103415     0.07500
H3430       H  0.71141343  0.62896293  0.56622264     0.07300
C3431       C  0.52846482  0.85611981  0.57693338     0.04400
C3432       C  0.50185410  0.83009631  0.57744421    -0.11800
C3433       C  0.49859294  0.80699836  0.58812660     0.01900
C3434       C  0.52201075  0.80986974  0.59834778    -0.10300
C3435       C  0.54892068  0.83548997  0.59766330     0.04300
C3436       C  0.55199274  0.85871383  0.58707067    -0.09700
H3437       H  0.98380491  0.82765767  0.56931620     0.09900
H3438       H  0.51954931  0.79179642  0.60641042     0.07500
H3439       H  0.57273779  0.87854665  0.58648576     0.07300
C3440       C  0.84700537  0.98499000  0.59376744     0.04400
C3441       C  0.84728900  0.51139457  0.59398919    -0.11800
C3442       C  0.86825491  0.53511330  0.58419730     0.01900
C3443       C  0.88893562  0.53215023  0.57405583    -0.10300
C3444       C  0.88917880  0.00587568  0.57380797     0.04300
C3445       C  0.86801128  0.98224246  0.58366755    -0.09700
H3446       H  0.83125556  0.51370043  0.60181110     0.09900
H3447       H  0.90489017  0.55039708  0.56631238     0.07500
H3448       H  0.86773418  0.96170076  0.58334967     0.07300
C3449       C  0.89261313  0.69597762  0.58631620     0.81400
N3450       N  0.89335001  0.67076441  0.58547117    -0.76900
C3451       C  0.86829028  0.64483427  0.58507189     0.83900
N3452       N  0.84246683  0.64445927  0.58528941    -0.76800
C3453       C  0.84150519  0.66955594  0.58588875     0.84000
N3454       N  0.86667855  0.69525824  0.58651290    -0.78500
Zn3455     Zn  0.73426825  0.83301780  0.65550225     1.49700
Zn3456     Zn  0.70117399  0.86988330  0.65730514     1.49400
Zn3457     Zn  0.66440614  0.80014590  0.65708122     1.49100
Zn3458     Zn  0.70128125  0.83387157  0.69172422     1.49500
O3459       O  0.70036626  0.83423894  0.66532160    -1.82900
O3460       O  0.75869713  0.86819890  0.63989228    -0.73500
O3461       O  0.66584302  0.86055223  0.64240716    -0.73300
O3462       O  0.67291049  0.77460627  0.64086792    -0.72900
O3463       O  0.73666749  0.89446685  0.64195550    -0.73500
O3464       O  0.72113909  0.79675131  0.64004401    -0.73100
O3465       O  0.63982821  0.81244312  0.64303594    -0.73700
O3466       O  0.66607632  0.79899181  0.70199280    -0.73100
O3467       O  0.70092449  0.89380449  0.67860703    -0.73900
O3468       O  0.64043443  0.77533520  0.67794407    -0.73300
O3469       O  0.70210107  0.86936320  0.70241652    -0.73700
O3470       O  0.73681460  0.83317615  0.70044247    -0.73600
O3471       O  0.76067772  0.83381700  0.67576921    -0.73400
C3472       C  0.75725668  0.89084636  0.63605084     0.78400
C3473       C  0.64323244  0.83691193  0.63813011     0.78900
C3474       C  0.69630826  0.77589709  0.63542451     0.77800
C3475       C  0.64381655  0.77762053  0.69498405     0.78200
C3476       C  0.70139227  0.89100958  0.69564088     0.79300
C3477       C  0.75875521  0.83387106  0.69292306     0.78400
C3478       C  0.88061206  0.85203122  0.42648221     0.04400
C3479       C  0.85479766  0.85325756  0.42537739    -0.11800
C3480       C  0.83174025  0.83346183  0.41453306     0.01900
C3481       C  0.83484719  0.81272012  0.40450846    -0.10300
C3482       C  0.86033257  0.81089956  0.40563075     0.04300
C3483       C  0.88310802  0.83053767  0.41680512    -0.09700
H3484       H  0.85266183  0.86961527  0.43295430     0.09900
H3485       H  0.81718388  0.79770791  0.39593287     0.07500
H3486       H  0.90287083  0.82935390  0.41780423     0.07300
C3487       C  0.51202809  0.66741198  0.40635064     0.04400
C3488       C  0.50804859  0.64327761  0.41634292    -0.11800
C3489       C  0.53054608  0.64532402  0.42732698     0.01900
C3490       C  0.55693334  0.67142562  0.42825722    -0.10300
C3491       C  0.56100586  0.69540850  0.41824824     0.04300
C3492       C  0.53854145  0.69339904  0.40736330    -0.09700
H3493       H  0.98767212  0.62307566  0.41553720     0.09900
H3494       H  0.57448979  0.67288675  0.43648164     0.07500
H3495       H  0.54182149  0.71195428  0.39949017     0.07300
C3496       C  0.71693226  0.51415319  0.40272625     0.04400
C3497       C  0.69644088  0.51740756  0.41310054    -0.11800
C3498       C  0.67420397  0.49357292  0.42225425     0.01900
C3499       C  0.67266162  0.96640206  0.42124940    -0.10300
C3500       C  0.69289017  0.96280663  0.41103455     0.04300
C3501       C  0.71479157  0.98645890  0.40171288    -0.09700
H3502       H  0.69771654  0.53839342  0.41397734     0.09900
H3503       H  0.65592815  0.94812339  0.42858220     0.07500
H3504       H  0.73035260  0.98356393  0.39376773     0.07300
C3505       C  0.66980727  0.80310674  0.41363503     0.81400
N3506       N  0.69598027  0.80427514  0.41355454    -0.76900
C3507       C  0.72079779  0.83006581  0.41172137     0.83900
N3508       N  0.71943991  0.85483038  0.41018959    -0.76800
C3509       C  0.69337472  0.85388946  0.41031038     0.84000
N3510       N  0.66858368  0.82800633  0.41207384    -0.78500
Zn3511     Zn  0.53180022  0.96322933  0.49018667     1.49700
Zn3512     Zn  0.53269861  0.50071778  0.52469169     1.49400
Zn3513     Zn  0.56599034  0.53286849  0.48901951     1.49100
Zn3514     Zn  0.99592743  0.49695596  0.48999301     1.49500
O3515       O  0.53167543  0.49828320  0.49838142    -1.82900
O3516       O  0.53334082  0.94036380  0.51175036    -0.73500
O3517       O  0.56819534  0.53627410  0.53389677    -0.73300
O3518       O  0.58967905  0.52169700  0.47303693    -0.72900
O3519       O  0.53363856  0.96675515  0.53517487    -0.73500
O3520       O  0.56666631  0.97381054  0.47395498    -0.73100
O3521       O  0.59271157  0.55799284  0.50920475    -0.73700
O3522       O  0.50535011  0.53178980  0.47484030    -0.73100
O3523       O  0.99744283  0.50067166  0.53476473    -0.73900
O3524       O  0.55367331  0.55677622  0.47408709    -0.73300
O3525       O  0.97118648  0.49728687  0.51072455    -0.73700
O3526       O  0.97167965  0.96175437  0.47475116    -0.73600
O3527       O  0.99535032  0.93696438  0.47564464    -0.73400
C3528       C  0.53366184  0.94453244  0.52873090     0.78400
C3529       C  0.59049625  0.55663056  0.52633437     0.78900
C3530       C  0.58752420  0.49756034  0.46844857     0.77800
C3531       C  0.52899693  0.55353970  0.46971663     0.78200
C3532       C  0.97486780  0.49918976  0.52774171     0.79300
C3533       C  0.97391104  0.93967960  0.47041746     0.78400
C3534       C  0.86466570  0.51716618  0.26141687     0.04400
C3535       C  0.89100835  0.51701868  0.26209431    -0.11800
C3536       C  0.89449983  0.49632142  0.25238144     0.01900
C3537       C  0.87119195  0.97529617  0.24287244    -0.10300
C3538       C  0.84462183  0.97499325  0.24205421     0.04300
C3539       C  0.84155456  0.49615164  0.25113747    -0.09700
H3540       H  0.90892497  0.53326159  0.26999651     0.09900
H3541       H  0.87419552  0.95950294  0.23523621     0.07500
H3542       H  0.82118830  0.49623710  0.25057014     0.07300
C3543       C  0.71262395  0.66276552  0.26117627     0.04400
C3544       C  0.71514371  0.68570477  0.25048998    -0.11800
C3545       C  0.69117727  0.68273314  0.24066322     0.01900
C3546       C  0.66468666  0.65663797  0.24152125    -0.10300
C3547       C  0.66202240  0.63358198  0.25207603     0.04300
C3548       C  0.68595442  0.63684015  0.26196551    -0.09700
H3549       H  0.73571151  0.70569306  0.24971441     0.09900
H3550       H  0.64626364  0.65412513  0.23377226     0.07500
H3551       H  0.68397292  0.61896886  0.27003989     0.07300
C3552       C  0.51310971  0.81423391  0.26074021     0.04400
C3553       C  0.51259435  0.84039842  0.26121775    -0.11800
C3554       C  0.53323053  0.86457426  0.25166558     0.01900
C3555       C  0.55459192  0.86259757  0.24159996    -0.10300
C3556       C  0.55534084  0.83654825  0.24106374     0.04300
C3557       C  0.53458737  0.81237929  0.25067048    -0.09700
H3558       H  0.99596265  0.84187223  0.26891352     0.09900
H3559       H  0.57042118  0.88119735  0.23406417     0.07500
H3560       H  0.53493053  0.79214776  0.25013105     0.07300
C3561       C  0.55513430  0.52311904  0.25196950     0.81400
N3562       N  0.55499962  0.99748365  0.25217076    -0.76900
C3563       C  0.52959332  0.97192146  0.25232075     0.83900
N3564       N  0.50400455  0.97196919  0.25279720    -0.76800
C3565       C  0.50405396  0.49717047  0.25244499     0.84000
N3566       N  0.52938386  0.52275671  0.25237627    -0.78500
Zn3567     Zn  0.69924852  0.86661161  0.17614150     1.49700
Zn3568     Zn  0.66384068  0.79768356  0.17469971     1.49400
Zn3569     Zn  0.69898716  0.83302271  0.14008655     1.49100
Zn3570     Zn  0.73375454  0.83117145  0.17489260     1.49500
O3571       O  0.69909641  0.83211219  0.16649385    -1.82900
O3572       O  0.66471526  0.85607318  0.19215859    -0.73500
O3573       O  0.63912934  0.77443903  0.15372612    -0.73300
O3574       O  0.69786248  0.86819605  0.13121635    -0.72900
O3575       O  0.63892566  0.80803209  0.19009745    -0.73500
O3576       O  0.69822507  0.89155667  0.15620642    -0.73100
O3577       O  0.66420504  0.79803799  0.12962895    -0.73700
O3578       O  0.75842821  0.83172098  0.15376103    -0.73100
O3579       O  0.67400032  0.77235257  0.18968748    -0.73900
O3580       O  0.73447968  0.83383045  0.12977979    -0.73300
O3581       O  0.72230354  0.79491883  0.18963518    -0.73700
O3582       O  0.75857326  0.86613084  0.19073650    -0.73600
O3583       O  0.73498361  0.89102447  0.19082491    -0.73400
C3584       C  0.64240567  0.83204747  0.19607728     0.78400
C3585       C  0.64194416  0.77688004  0.13667661     0.78900
C3586       C  0.69772096  0.88948284  0.13910017     0.77800
C3587       C  0.75591942  0.83288761  0.13673437     0.78200
C3588       C  0.69780631  0.77395080  0.19449449     0.79300
C3589       C  0.75632201  0.88799143  0.19565822     0.78400
Zn3590     Zn  0.86539995  0.70124431  0.32276850     1.49700
Zn3591     Zn  0.89884197  0.66489119  0.32309773     1.49400
Zn3592     Zn  0.86422559  0.66517576  0.35831693     1.49100
Zn3593     Zn  0.82895646  0.63186947  0.32326516     1.49500
O3594       O  0.86440113  0.66597932  0.33185753    -1.82900
O3595       O  0.90110963  0.72473614  0.30706884    -0.73500
O3596       O  0.92393877  0.66501923  0.34358084    -0.73300
O3597       O  0.86444636  0.70082785  0.36811175    -0.72900
O3598       O  0.92431172  0.69949757  0.30772223    -0.73500
O3599       O  0.86651306  0.72639036  0.34385353    -0.73100
O3600       O  0.89958060  0.66462244  0.36793465    -0.73700
O3601       O  0.80434390  0.60688337  0.34372540    -0.73100
O3602       O  0.88690831  0.62907225  0.30807901    -0.73900
O3603       O  0.82888116  0.62967232  0.36833497    -0.73300
O3604       O  0.83866707  0.60682009  0.30789065    -0.73700
O3605       O  0.80436264  0.64297412  0.30832606    -0.73600
O3606       O  0.82935365  0.69113013  0.30777023    -0.73400
C3607       C  0.92248354  0.72135613  0.30254281     0.78400
C3608       C  0.92147545  0.66485426  0.36065925     0.78900
C3609       C  0.86554878  0.72312675  0.36092420     0.77800
C3610       C  0.80703272  0.60853084  0.36079943     0.78200
C3611       C  0.86238291  0.60820238  0.30317954     0.79300
C3612       C  0.80720614  0.66713335  0.30327764     0.78400
C3613       C  0.53201018  0.89191803  0.25191525    -0.04100
C3614       C  0.51903152  0.89856333  0.23747602    -0.01200
C3615       C  0.51778103  0.92451993  0.23771362     0.03800
C3616       C  0.52989810  0.94414248  0.25228643    -0.04100
C3617       C  0.54256651  0.93729061  0.26682606    -0.01200
C3618       C  0.54343093  0.91114545  0.26669562     0.03800
C3619       C  0.50675245  0.87848892  0.22245876     0.38400
C3620       C  0.55401119  0.95682199  0.28215709     0.38400
C3621       C  0.55601328  0.90393735  0.28178451     0.36800
C3622       C  0.50452451  0.93128825  0.22279867     0.36800
N3623       N  0.56592807  0.89807658  0.29383955    -0.38000
N3624       N  0.49389606  0.93666835  0.21091910    -0.38000
N3625       N  0.56305124  0.97245411  0.29436580    -0.37400
N3626       N  0.49698783  0.86238000  0.21052438    -0.37400
C3627       C  0.99050362  0.78867062  0.27061918    -0.04100
C3628       C  0.96168050  0.77400565  0.26416565    -0.01200
C3629       C  0.93953472  0.75158450  0.27440026     0.03800
C3630       C  0.94607887  0.74361871  0.29116259    -0.04100
C3631       C  0.97527580  0.75721016  0.29709593    -0.01200
C3632       C  0.99735981  0.77982845  0.28691909     0.03800
C3633       C  0.95495495  0.78187641  0.24685242     0.38400
C3634       C  0.98255934  0.74853115  0.31393563     0.38400
C3635       C  0.52703194  0.79467570  0.29348405     0.36800
C3636       C  0.91018773  0.73598006  0.26736022     0.36800
N3637       N  0.55072433  0.80660237  0.29867066    -0.38000
N3638       N  0.88682089  0.72336883  0.26167885    -0.38000
N3639       N  0.98840680  0.74150767  0.32731710    -0.37400
N3640       N  0.94978786  0.78821634  0.23300388    -0.37400
C3641       C  0.57736880  0.83438680  0.22979904    -0.04100
C3642       C  0.57057253  0.82396587  0.21192298    -0.01200
C3643       C  0.59169036  0.82265829  0.20098434     0.03800
C3644       C  0.61983245  0.83212702  0.20781464    -0.04100
C3645       C  0.62653925  0.84225688  0.22576029    -0.01200
C3646       C  0.60533914  0.84337385  0.23673165     0.03800
C3647       C  0.54198327  0.81518341  0.20469512     0.38400
C3648       C  0.65506965  0.85085447  0.23303818     0.38400
C3649       C  0.61226986  0.85380867  0.25515273     0.36800
C3650       C  0.58473548  0.81238132  0.18251984     0.36800
N3651       N  0.61779153  0.86213594  0.26985391    -0.38000
N3652       N  0.57924706  0.80419010  0.16778895    -0.38000
N3653       N  0.67782671  0.85756106  0.23877756    -0.37400
N3654       N  0.51917914  0.80829100  0.19896923    -0.37400
C3655       C  0.58261046  0.55115527  0.25206865    -0.04100
C3656       C  0.60052359  0.56025724  0.23665152    -0.01200
C3657       C  0.62631925  0.58733972  0.23661960     0.03800
C3658       C  0.63449803  0.60533043  0.25207829    -0.04100
C3659       C  0.61673016  0.59602235  0.26758482    -0.01200
C3660       C  0.59075538  0.56908060  0.26753119     0.03800
C3661       C  0.59215324  0.54193710  0.22071348     0.38400
C3662       C  0.62507864  0.61426333  0.28355281     0.38400
C3663       C  0.57264794  0.55944784  0.28351961     0.36800
C3664       C  0.64475991  0.59654601  0.22077313     0.36800
N3665       N  0.55812186  0.55160158  0.29623037    -0.38000
N3666       N  0.65955554  0.60403794  0.20817403    -0.38000
N3667       N  0.63176466  0.62876216  0.29631978    -0.37400
N3668       N  0.58546229  0.52729280  0.20801180    -0.37400
C3669       C  0.69378470  0.70675598  0.22909179    -0.04100
C3670       C  0.70906574  0.71306117  0.21260801    -0.01200
C3671       C  0.71054154  0.73509917  0.20129120     0.03800
C3672       C  0.69679812  0.75103695  0.20642135    -0.04100
C3673       C  0.68167202  0.74481907  0.22298440    -0.01200
C3674       C  0.68014339  0.72274466  0.23424702     0.03800
C3675       C  0.72253579  0.69623173  0.20706093     0.38400
C3676       C  0.66821810  0.76163157  0.22865801     0.38400
C3677       C  0.66476631  0.71665556  0.25127747     0.36800
C3678       C  0.72508117  0.74046481  0.18399461     0.36800
N3679       N  0.65249545  0.71176690  0.26486155    -0.38000
N3680       N  0.73653891  0.74465466  0.17015058    -0.38000
N3681       N  0.65755005  0.77511425  0.23312613    -0.37400
N3682       N  0.73322498  0.68272928  0.20268799    -0.37400
C3683       C  0.73804969  0.66531587  0.27129860    -0.04100
C3684       C  0.74933178  0.68418069  0.28627825    -0.01200
C3685       C  0.77196236  0.68486606  0.29668746     0.03800
C3686       C  0.78394618  0.66710946  0.29198360    -0.04100
C3687       C  0.77294793  0.64861243  0.27675016    -0.01200
C3688       C  0.75013572  0.64774756  0.26648040     0.03800
C3689       C  0.73701138  0.70226370  0.29132241     0.38400
C3690       C  0.78529802  0.63065071  0.27143095     0.38400
C3691       C  0.73925987  0.62898765  0.25075456     0.36800
C3692       C  0.78164084  0.70253495  0.31290163     0.36800
N3693       N  0.73047170  0.61407191  0.23820934    -0.38000
N3694       N  0.78922956  0.71640480  0.32592945    -0.38000
N3695       N  0.79504761  0.61624683  0.26717512    -0.37400
N3696       N  0.72722297  0.71675342  0.29527621    -0.37400
C3697       C  0.97605988  0.49706198  0.25255730    -0.04100
C3698       C  0.95586716  0.98388894  0.26759086    -0.01200
C3699       C  0.92925597  0.98386067  0.26772648     0.03800
C3700       C  0.92272347  0.49694608  0.25262061    -0.04100
C3701       C  0.94272719  0.51050616  0.23849782    -0.01200
C3702       C  0.96934780  0.51059449  0.23846051     0.03800
C3703       C  0.96298402  0.97058014  0.28229615     0.38400
C3704       C  0.93598601  0.52467962  0.22412311     0.38400
C3705       C  0.98956007  0.52406650  0.22368843     0.36800
C3706       C  0.90899237  0.97051325  0.28248876     0.36800
N3707       N  0.50572976  0.53481075  0.21193050    -0.38000
N3708       N  0.89281960  0.96007624  0.29428277    -0.38000
N3709       N  0.93056330  0.53604042  0.21271873    -0.37400
N3710       N  0.96868515  0.96000546  0.29404343    -0.37400
C3711       C  0.82085941  0.95300167  0.23065989    -0.04100
C3712       C  0.81310379  0.96130421  0.21446909    -0.01200
C3713       C  0.79222583  0.94005178  0.20291325     0.03800
C3714       C  0.77879304  0.91035967  0.20757443    -0.04100
C3715       C  0.78609917  0.90219386  0.22401239    -0.01200
C3716       C  0.80697245  0.92346647  0.23553675     0.03800
C3717       C  0.82698669  0.99171664  0.20957394     0.38400
C3718       C  0.77147182  0.87196809  0.22937069     0.38400
C3719       C  0.81364015  0.91510508  0.25270244     0.36800
C3720       C  0.78540813  0.94871839  0.18590314     0.36800
N3721       N  0.81892153  0.90857907  0.26645206    -0.38000
N3722       N  0.78006733  0.95566385  0.17231820    -0.38000
N3723       N  0.75975107  0.84785162  0.23362516    -0.37400
N3724       N  0.83566739  0.51608889  0.20601933    -0.37400
C3725       C  0.86139389  0.58472298  0.29182421    -0.04100
C3726       C  0.87853211  0.59155402  0.27608057    -0.01200
C3727       C  0.87866116  0.56928045  0.26576587     0.03800
C3728       C  0.86192467  0.54009777  0.27122017    -0.04100
C3729       C  0.84394236  0.53313613  0.28655571    -0.01200
C3730       C  0.84358949  0.55538259  0.29681621     0.03800
C3731       C  0.89555658  0.62146009  0.27024341     0.38400
C3732       C  0.82654482  0.50315558  0.29213215     0.38400
C3733       C  0.82582678  0.54809142  0.31294902     0.36800
C3734       C  0.89575956  0.57631657  0.24936687     0.36800
N3735       N  0.81167000  0.54236693  0.32580534    -0.38000
N3736       N  0.90930252  0.58183118  0.23625827    -0.38000
N3737       N  0.81058053  0.97922716  0.29675908    -0.37400
N3738       N  0.90909531  0.64531088  0.26560097    -0.37400
C3739       C  0.69208842  0.93445043  0.41091000    -0.04100
C3740       C  0.70472818  0.92726867  0.42527073    -0.01200
C3741       C  0.70492840  0.90082629  0.42503924     0.03800
C3742       C  0.69235632  0.88129321  0.41047604    -0.04100
C3743       C  0.67912677  0.88816731  0.39626702    -0.01200
C3744       C  0.67897387  0.91472466  0.39650377     0.03800
C3745       C  0.71758326  0.94719238  0.44030248     0.38400
C3746       C  0.66650320  0.86837101  0.38116244     0.38400
C3747       C  0.66517457  0.92174917  0.38203219     0.36800
C3748       C  0.71765555  0.89343878  0.43998054     0.36800
N3749       N  0.65410232  0.92741025  0.37055014    -0.38000
N3750       N  0.72776439  0.88738265  0.45183640    -0.38000
N3751       N  0.65651857  0.85265293  0.36906248    -0.37400
N3752       N  0.72773704  0.96308843  0.45230040    -0.37400
C3753       C  0.74014502  0.53916131  0.39256281    -0.04100
C3754       C  0.76980964  0.54923371  0.39626308    -0.01200
C3755       C  0.79167363  0.57205488  0.38604969     0.03800
C3756       C  0.78411049  0.58514188  0.37206002    -0.04100
C3757       C  0.75442378  0.57514349  0.36847290    -0.01200
C3758       C  0.73261784  0.55227356  0.37862567     0.03800
C3759       C  0.77790261  0.53612232  0.41062063     0.38400
C3760       C  0.74615569  0.58861627  0.35443955     0.38400
C3761       C  0.70230272  0.54156977  0.37430506     0.36800
C3762       C  0.82194368  0.58112346  0.38944670     0.36800
N3763       N  0.67795418  0.03234967  0.37077803    -0.38000
N3764       N  0.84607707  0.58828790  0.39210734    -0.38000
N3765       N  0.73955891  0.59931640  0.34322265    -0.37400
N3766       N  0.78436088  0.52558251  0.42201405    -0.37400
C3767       C  0.60982887  0.49760489  0.45620697    -0.04100
C3768       C  0.60129979  0.98111369  0.44009316    -0.01200
C3769       C  0.62242290  0.98063237  0.42869205     0.03800
C3770       C  0.65229756  0.49659162  0.43331533    -0.04100
C3771       C  0.66080168  0.51389923  0.44908092    -0.01200
C3772       C  0.63967808  0.51445031  0.46045810     0.03800
C3773       C  0.57087073  0.96492190  0.43509522     0.38400
C3774       C  0.69127027  0.53048652  0.45391121     0.38400
C3775       C  0.64866943  0.53149851  0.47694220     0.36800
C3776       C  0.61356107  0.96407764  0.41201970     0.36800
N3777       N  0.65582165  0.54507605  0.49009560    -0.38000
N3778       N  0.60656667  0.95096671  0.39868827    -0.38000
N3779       N  0.71559580  0.54378672  0.45770077    -0.37400
N3780       N  0.54659515  0.95207378  0.43112107    -0.37400
C3781       C  0.64273462  0.77483319  0.41565379    -0.04100
C3782       C  0.63688661  0.75158063  0.40382981    -0.01200
C3783       C  0.61040034  0.72533912  0.40506047     0.03800
C3784       C  0.58964467  0.72217394  0.41806894    -0.04100
C3785       C  0.59601100  0.74467504  0.43052736    -0.01200
C3786       C  0.62253764  0.77097321  0.42935229     0.03800
C3787       C  0.65771313  0.75480863  0.39005088     0.38400
C3788       C  0.57531975  0.74058701  0.44461187     0.38400
C3789       C  0.62949184  0.79363113  0.44263936     0.36800
C3790       C  0.60432749  0.70148777  0.39289825     0.36800
N3791       N  0.63516645  0.81164995  0.45330038    -0.38000
N3792       N  0.59936283  0.68232699  0.38330167    -0.38000
N3793       N  0.55883449  0.73718949  0.45589023    -0.37400
N3794       N  0.67434665  0.75729062  0.37909592    -0.37400
C3795       C  0.98841897  0.66589369  0.39483156    -0.04100
C3796       C  0.98295676  0.65271399  0.37767249    -0.01200
C3797       C  0.96075459  0.65170451  0.36665252     0.03800
C3798       C  0.94468517  0.66522019  0.37237484    -0.04100
C3799       C  0.95119965  0.67942537  0.38940294    -0.01200
C3800       C  0.97242035  0.67909403  0.40068442     0.03800
C3801       C  0.50091327  0.64102295  0.37113057     0.38400
C3802       C  0.93723981  0.69573475  0.39512287     0.38400
C3803       C  0.97801121  0.69254909  0.41839671     0.36800
C3804       C  0.95428824  0.63616696  0.34961760     0.36800
N3805       N  0.98251150  0.70316614  0.43254915    -0.38000
N3806       N  0.94918328  0.62371671  0.33605516    -0.38000
N3807       N  0.92628530  0.70891620  0.39966412    -0.37400
N3808       N  0.51547552  0.63201902  0.36586821    -0.37400
C3809       C  0.52737198  0.61995405  0.43750308    -0.04100
C3810       C  0.51542554  0.61429659  0.45500648    -0.01200
C3811       C  0.51526455  0.59201411  0.46539064     0.03800
C3812       C  0.52769972  0.57580262  0.45844758    -0.04100
C3813       C  0.53904364  0.58105063  0.44077633    -0.01200
C3814       C  0.53866230  0.60293665  0.43027995     0.03800
C3815       C  0.50417577  0.63204730  0.46251691     0.38400
C3816       C  0.55072360  0.56363714  0.43330918     0.38400
C3817       C  0.55010148  0.60819386  0.41206589     0.36800
C3818       C  0.50324884  0.58644215  0.48346930     0.36800
N3819       N  0.55911308  0.61241319  0.39750977    -0.38000
N3820       N  0.49364825  0.58188303  0.49788297    -0.38000
N3821       N  0.55999531  0.54970142  0.42736276    -0.37400
N3822       N  0.49532000  0.64630446  0.46852128    -0.37400
C3823       C  0.80379618  0.83373478  0.41395052    -0.04100
C3824       C  0.78573837  0.82569416  0.42933908    -0.01200
C3825       C  0.75852097  0.82434768  0.42854013     0.03800
C3826       C  0.74931696  0.83137374  0.41243423    -0.04100
C3827       C  0.76743336  0.83975487  0.39711218    -0.01200
C3828       C  0.79451545  0.84074842  0.39782205     0.03800
C3829       C  0.79487052  0.81815536  0.44591016     0.38400
C3830       C  0.75782090  0.84659998  0.38047396     0.38400
C3831       C  0.81290775  0.84911523  0.38196680     0.36800
C3832       C  0.74005855  0.81604810  0.44437652     0.36800
N3833       N  0.82755525  0.85568213  0.36930688    -0.38000
N3834       N  0.72522160  0.80940760  0.45695125    -0.38000
N3835       N  0.75006206  0.85200234  0.36721848    -0.37400
N3836       N  0.80221053  0.81222213  0.45913753    -0.37400
C3837       C  0.86287165  0.78833259  0.39489718    -0.04100
C3838       C  0.84218620  0.75862630  0.39707147    -0.01200
C3839       C  0.84318848  0.73741193  0.38603116     0.03800
C3840       C  0.86507320  0.74556507  0.37280892    -0.04100
C3841       C  0.88627622  0.77511814  0.37097945    -0.01200
C3842       C  0.88511394  0.79641675  0.38189942     0.03800
C3843       C  0.81989187  0.74974175  0.41081395     0.38400
C3844       C  0.90980888  0.78358244  0.35817817     0.38400
C3845       C  0.90645939  0.82675385  0.37940363     0.36800
C3846       C  0.82100830  0.70719600  0.38791242     0.36800
N3847       N  0.92353918  0.85095605  0.37749908    -0.38000
N3848       N  0.80334492  0.68309858  0.38937821    -0.38000
N3849       N  0.92866096  0.79031835  0.34803370    -0.37400
N3850       N  0.80204650  0.74267175  0.42172030    -0.37400
C3851       C  0.95096657  0.91680645  0.45883993    -0.04100
C3852       C  0.94370527  0.92433371  0.44213741    -0.01200
C3853       C  0.92124384  0.90298731  0.43141259     0.03800
C3854       C  0.90539783  0.87402181  0.43741547    -0.04100
C3855       C  0.91288152  0.86633420  0.45394851    -0.01200
C3856       C  0.93571986  0.88758963  0.46456359     0.03800
C3857       C  0.95979637  0.95399797  0.43575532     0.38400
C3858       C  0.89651487  0.83666673  0.46025579     0.38400
C3859       C  0.94274972  0.87956809  0.48171776     0.36800
C3860       C  0.91476377  0.91066845  0.41395982     0.36800
N3861       N  0.94837281  0.87318656  0.49540843    -0.38000
N3862       N  0.90960206  0.91662534  0.39998616    -0.38000
N3863       N  0.88338195  0.81298201  0.46525748    -0.37400
N3864       N  0.97262858  0.97766387  0.43067957    -0.37400
C3865       C  0.86894557  0.61699766  0.58448802    -0.04100
C3866       C  0.84932813  0.59384022  0.57328257    -0.01200
C3867       C  0.84908543  0.56712218  0.57327047     0.03800
C3868       C  0.86845504  0.56322573  0.58433563    -0.04100
C3869       C  0.88845926  0.58634963  0.59521826    -0.01200
C3870       C  0.88875282  0.61311095  0.59533448     0.03800
C3871       C  0.82999792  0.59765972  0.56119353     0.38400
C3872       C  0.90849949  0.58241275  0.60655427     0.38400
C3873       C  0.90898020  0.63622902  0.60708164     0.36800
C3874       C  0.82928925  0.54377259  0.56150957     0.36800
N3875       N  0.92522656  0.65464879  0.61641769    -0.38000
N3876       N  0.81355833  0.52530705  0.55201678    -0.38000
N3877       N  0.92446415  0.57932834  0.61564673    -0.37400
N3878       N  0.81457620  0.60067740  0.55154581    -0.37400
C3879       C  0.82415181  0.95978867  0.60401809    -0.04100
C3880       C  0.83177755  0.94776153  0.61856654    -0.01200
C3881       C  0.81000737  0.92472157  0.62869742     0.03800
C3882       C  0.78030879  0.91380990  0.62461400    -0.04100
C3883       C  0.77274537  0.92540598  0.60979053    -0.01200
C3884       C  0.79454112  0.94806003  0.59947131     0.03800
C3885       C  0.86203828  0.95974204  0.62353164     0.38400
C3886       C  0.74250387  0.91344055  0.60475343     0.38400
C3887       C  0.78645137  0.95877162  0.58382634     0.36800
C3888       C  0.81824458  0.91297336  0.64376061     0.36800
N3889       N  0.77985728  0.96711160  0.57131097    -0.38000
N3890       N  0.82475325  0.90349402  0.65574347    -0.38000
N3891       N  0.71840743  0.90390772  0.60069204    -0.37400
N3892       N  0.88617538  0.96930064  0.62749572    -0.37400
C3893       C  0.91099980  0.00299141  0.56259695    -0.04100
C3894       C  0.94073358  0.52021708  0.56617513    -0.01200
C3895       C  0.96155236  0.51919556  0.55478542     0.03800
C3896       C  0.95268973  0.50020797  0.53971263    -0.04100
C3897       C  0.92283202  0.98273391  0.53626239    -0.01200
C3898       C  0.90206470  0.98428191  0.54747217     0.03800
C3899       C  0.95024036  0.53896752  0.58193112     0.38400
C3900       C  0.91304604  0.96248848  0.52123225     0.38400
C3901       C  0.87143014  0.96719351  0.54312204     0.36800
C3902       C  0.99217025  0.53870591  0.55826728     0.36800
N3903       N  0.84697700  0.95363732  0.53970418    -0.38000
N3904       N  0.51657507  0.55429630  0.56100095    -0.38000
N3905       N  0.90516393  0.94631538  0.50925793    -0.37400
N3906       N  0.95807880  0.55395052  0.59447653    -0.37400
C3907       C  0.97121688  0.77882012  0.58761281    -0.04100
C3908       C  0.95096345  0.77085198  0.60178534    -0.01200
C3909       C  0.92526232  0.74370021  0.60139237     0.03800
C3910       C  0.91991240  0.72424348  0.58692163    -0.04100
C3911       C  0.94040994  0.73217113  0.57284717    -0.01200
C3912       C  0.96583630  0.75951688  0.57310869     0.03800
C3913       C  0.95657574  0.79068779  0.61672128     0.38400
C3914       C  0.93510326  0.71246332  0.55788598     0.38400
C3915       C  0.98659972  0.76787911  0.55846295     0.36800
C3916       C  0.90472196  0.73544369  0.61615410     0.36800
N3917       N  0.50320061  0.77476406  0.54679654    -0.38000
N3918       N  0.88832062  0.72879408  0.62792225    -0.38000
N3919       N  0.93093305  0.69671386  0.54597502    -0.37400
N3920       N  0.96109893  0.80652645  0.62863355    -0.37400
C3921       C  0.57420219  0.83718495  0.60741624    -0.04100
C3922       C  0.58458313  0.81811050  0.60271358    -0.01200
C3923       C  0.60749735  0.81845247  0.61250714     0.03800
C3924       C  0.62018190  0.83777935  0.62719549    -0.04100
C3925       C  0.61033273  0.85747516  0.63155677    -0.01200
C3926       C  0.58746402  0.85718626  0.62167248     0.03800
C3927       C  0.57190792  0.79832135  0.58757702     0.38400
C3928       C  0.62284385  0.87730038  0.64668092     0.38400
C3929       C  0.57693666  0.87686138  0.62655957     0.36800
C3930       C  0.61856301  0.79943191  0.60706062     0.36800
N3931       N  0.56855671  0.89258632  0.63039786    -0.38000
N3932       N  0.62743150  0.78432079  0.60269361    -0.38000
N3933       N  0.63281173  0.89312926  0.65873316    -0.37400
N3934       N  0.56169209  0.78250422  0.57554610    -0.37400
C3935       C  0.53347705  0.92284899  0.54148510    -0.04100
C3936       C  0.55175877  0.91083907  0.53861918    -0.01200
C3937       C  0.55059401  0.88945094  0.55038938     0.03800
C3938       C  0.53155286  0.88028763  0.56531942    -0.04100
C3939       C  0.51437435  0.89331699  0.56871500    -0.01200
C3940       C  0.51507671  0.91425877  0.55679239     0.03800
C3941       C  0.57250625  0.92113575  0.52391195     0.38400
C3942       C  0.99615098  0.88538035  0.58466540     0.38400
C3943       C  0.99607430  0.92622461  0.56009049     0.36800
C3944       C  0.56857878  0.87642172  0.54689306     0.36800
N3945       N  0.98096592  0.93579295  0.56274856    -0.38000
N3946       N  0.58296185  0.86605058  0.54417409    -0.38000
N3947       N  0.98169278  0.87908087  0.59740548    -0.37400
N3948       N  0.58918372  0.92947658  0.51225191    -0.37400
C3949       C  0.81314218  0.66893744  0.58553938    -0.04100
C3950       C  0.79042849  0.65037865  0.59724023    -0.01200
C3951       C  0.76352145  0.64975526  0.59680508     0.03800
C3952       C  0.75903786  0.66749270  0.58463994    -0.04100
C3953       C  0.78165126  0.68616626  0.57304433    -0.01200
C3954       C  0.80858327  0.68685617  0.57342668     0.03800
C3955       C  0.79488660  0.63241526  0.61008449     0.38400
C3956       C  0.77702618  0.70443503  0.56053735     0.38400
C3957       C  0.83114184  0.70521785  0.56081084     0.36800
C3958       C  0.74048952  0.63116467  0.60907210     0.36800
N3959       N  0.84910589  0.71983623  0.55073110    -0.38000
N3960       N  0.72212125  0.61644482  0.61889184    -0.38000
N3961       N  0.77335455  0.71900650  0.55055662    -0.37400
N3962       N  0.79845219  0.61805237  0.62029811    -0.37400
C3963       C  0.69549764  0.70845171  0.60201894    -0.04100
C3964       C  0.67802589  0.70104563  0.61762893    -0.01200
C3965       C  0.67724290  0.72293174  0.62815625     0.03800
C3966       C  0.69464966  0.75249752  0.62342491    -0.04100
C3967       C  0.71084703  0.75966115  0.60725225    -0.01200
C3968       C  0.71102513  0.73770821  0.59652642     0.03800
C3969       C  0.66172487  0.67098482  0.62323742     0.38400
C3970       C  0.72670887  0.78959648  0.60134798     0.38400
C3971       C  0.72688039  0.74514494  0.57964104     0.36800
C3972       C  0.65920103  0.71497972  0.64416892     0.36800
N3973       N  0.73932675  0.75103571  0.56609931    -0.38000
N3974       N  0.64462989  0.70860305  0.65686204    -0.38000
N3975       N  0.73926089  0.81347088  0.59662537    -0.37400
N3976       N  0.64878177  0.64699434  0.62769737    -0.37400
C3977       C  0.65783791  0.62152948  0.56065431    -0.04100
C3978       C  0.64298484  0.59215078  0.56585562    -0.01200
C3979       C  0.62157043  0.57093396  0.55449721     0.03800
C3980       C  0.61433941  0.57898097  0.53787376    -0.04100
C3981       C  0.62988876  0.60847238  0.53254406    -0.01200
C3982       C  0.65154613  0.62953189  0.54386614     0.03800
C3983       C  0.64974711  0.58375786  0.58298836     0.38400
C3984       C  0.62352385  0.61748927  0.51552447     0.38400
C3985       C  0.66795247  0.65949746  0.53806854     0.36800
C3986       C  0.60801107  0.54064316  0.55967388     0.36800
N3987       N  0.68119771  0.68340697  0.53349683    -0.38000
N3988       N  0.59733114  0.51649644  0.56377784    -0.38000
N3989       N  0.61860956  0.62472588  0.50190764    -0.37400
N3990       N  0.65515872  0.57708308  0.59664561    -0.37400
C3991       C  0.53524313  0.55534326  0.75426383    -0.04100
C3992       C  0.52253630  0.56194652  0.73961822    -0.01200
C3993       C  0.52347091  0.58896430  0.73892179     0.03800
C3994       C  0.53723050  0.60958179  0.75278907    -0.04100
C3995       C  0.55035758  0.60324538  0.76727107    -0.01200
C3996       C  0.54914385  0.57610322  0.76810339     0.03800
C3997       C  0.00930039  0.54132502  0.72496284     0.38400
C3998       C  0.56555452  0.62491500  0.78113893     0.38400
C3999       C  0.56146092  0.56921816  0.78348472     0.36800
C4000       C  0.01034703  0.59568749  0.72390653     0.36800
N4001       N  0.57114457  0.56362392  0.79578298    -0.38000
N4002       N  0.99998788  0.60123702  0.71195377    -0.38000
N4003       N  0.57783668  0.64231866  0.79211171    -0.37400
N4004       N  0.99882511  0.52490074  0.71324670    -0.37400
C4005       C  0.62145561  0.75481200  0.70694613    -0.04100
C4006       C  0.59148834  0.74171992  0.70269860    -0.01200
C4007       C  0.57052249  0.71969426  0.71379655     0.03800
C4008       C  0.57913056  0.71077007  0.72939359    -0.04100
C4009       C  0.60887924  0.72404953  0.73383679    -0.01200
C4010       C  0.62993815  0.74578973  0.72267305     0.03800
C4011       C  0.58194763  0.75126037  0.68713317     0.38400
C4012       C  0.61784433  0.71532026  0.75002367     0.38400
C4013       C  0.66042497  0.75801699  0.72717355     0.36800
C4014       C  0.54005864  0.70559621  0.70887434     0.36800
N4015       N  0.68471348  0.76773316  0.73080169    -0.38000
N4016       N  0.51576809  0.69429308  0.70493309    -0.38000
N4017       N  0.62489464  0.70825226  0.76291990    -0.37400
N4018       N  0.57432941  0.75886357  0.67472310    -0.37400
C4019       C  0.99394350  0.67010973  0.77205246    -0.04100
C4020       C  0.96574930  0.65891861  0.76487313    -0.01200
C4021       C  0.94359253  0.65928018  0.77527223     0.03800
C4022       C  0.94953320  0.67096183  0.79290651    -0.04100
C4023       C  0.97792611  0.68271833  0.79994254    -0.01200
C4024       C  0.00002771  0.68216943  0.78956862     0.03800
C4025       C  0.95957919  0.64685393  0.74678250     0.38400
C4026       C  0.98411714  0.69439028  0.81813013     0.38400
C4027       C  0.02887861  0.69331799  0.79706166     0.36800
C4028       C  0.91476580  0.64804668  0.76772181     0.36800
N4029       N  0.05190342  0.70213466  0.80301512    -0.38000
N4030       N  0.89177549  0.63915696  0.76169646    -0.38000
N4031       N  0.98897270  0.70362601  0.83265883    -0.37400
N4032       N  0.45482420  0.63727416  0.73233996    -0.37400
C4033       C  0.58825039  0.50117603  0.75541143    -0.04100
C4034       C  0.59527656  0.48796222  0.76954055    -0.01200
C4035       C  0.62154556  0.48728991  0.76907485     0.03800
C4036       C  0.64083039  0.49974763  0.75447130    -0.04100
C4037       C  0.63349792  0.01299798  0.73985139    -0.01200
C4038       C  0.60724766  0.01365325  0.74029665     0.03800
C4039       C  0.57588548  0.47585205  0.78482288     0.38400
C4040       C  0.65349955  0.02605645  0.72492922     0.38400
C4041       C  0.59983225  0.02651459  0.72546674     0.36800
C4042       C  0.62885245  0.47388642  0.78363141     0.36800
N4043       N  0.59389001  0.03674735  0.71363613    -0.38000
N4044       N  0.63477536  0.46326456  0.79524332    -0.38000
N4045       N  0.66957943  0.03647991  0.71309041    -0.37400
N4046       N  0.56042375  0.46631185  0.79703023    -0.37400
C4047       C  0.74519754  0.54349817  0.77124863    -0.04100
C4048       C  0.75480352  0.53663709  0.78724664    -0.01200
C4049       C  0.77676303  0.55885983  0.79779111     0.03800
C4050       C  0.78948229  0.58815985  0.79232591    -0.04100
C4051       C  0.78059016  0.59486920  0.77593681    -0.01200
C4052       C  0.75854430  0.57260918  0.76544258     0.03800
C4053       C  0.74133876  0.50672909  0.79316638     0.38400
C4054       C  0.79450945  0.62462681  0.76968138     0.38400
C4055       C  0.74968273  0.57957088  0.74855504     0.36800
C4056       C  0.78515605  0.55164094  0.81476327     0.36800
N4057       N  0.74262578  0.58504138  0.73505251    -0.38000
N4058       N  0.79176694  0.54590335  0.82833695    -0.38000
N4059       N  0.80567914  0.64837020  0.76470108    -0.37400
N4060       N  0.73056521  0.48282846  0.79779949    -0.37400
C4061       C  0.69812476  0.95540020  0.73048464    -0.04100
C4062       C  0.71319472  0.96369929  0.71396046    -0.01200
C4063       C  0.71499815  0.94295105  0.70286762     0.03800
C4064       C  0.70071510  0.91327532  0.70784593    -0.04100
C4065       C  0.68517769  0.90497779  0.72437825    -0.01200
C4066       C  0.68410085  0.92598678  0.73564782     0.03800
C4067       C  0.72592423  0.99355883  0.70803235     0.38400
C4068       C  0.66932765  0.87470191  0.72964457     0.38400
C4069       C  0.66834323  0.91729990  0.75257119     0.36800
C4070       C  0.73232018  0.95254625  0.68655786     0.36800
N4071       N  0.65571393  0.91036537  0.76604110    -0.38000
N4072       N  0.74621836  0.96026426  0.67358389    -0.38000
N4073       N  0.65667831  0.85057574  0.73386735    -0.37400
N4074       N  0.73506324  0.51729977  0.70341483    -0.37400
C4075       C  0.92745747  0.89529652  0.75213812    -0.04100
C4076       C  0.95019446  0.90032072  0.74020941    -0.01200
C4077       C  0.97682944  0.92660556  0.74107464     0.03800
C4078       C  0.98090418  0.94817343  0.75389443    -0.04100
C4079       C  0.95815696  0.94284683  0.76601254    -0.01200
C4080       C  0.93158089  0.91646915  0.76514576     0.03800
C4081       C  0.94612048  0.87829945  0.72705148     0.38400
C4082       C  0.96240930  0.96400573  0.77984428     0.38400
C4083       C  0.90850442  0.91083934  0.77780106     0.36800
C4084       C  0.99975775  0.93163360  0.72843506     0.36800
N4085       N  0.89006043  0.90617408  0.78790634    -0.38000
N4086       N  0.01809823  0.93563166  0.71840115    -0.38000
N4087       N  0.96583077  0.98085281  0.79091058    -0.37400
N4088       N  0.94281208  0.86066772  0.71659563    -0.37400
C4089       C  0.86543042  0.79227407  0.77103760    -0.04100
C4090       C  0.85439633  0.78791126  0.78877063    -0.01200
C4091       C  0.85381493  0.76570877  0.79951472     0.03800
C4092       C  0.86427327  0.74776878  0.79254912    -0.04100
C4093       C  0.87441435  0.75157668  0.77460063    -0.01200
C4094       C  0.87491780  0.77371689  0.76387229     0.03800
C4095       C  0.84404091  0.80658337  0.79600430     0.38400
C4096       C  0.88397883  0.73242214  0.76709997     0.38400
C4097       C  0.88533250  0.77758287  0.74544360     0.36800
C4098       C  0.84354483  0.76207291  0.81797166     0.36800
N4099       N  0.89352908  0.78072674  0.73071340    -0.38000
N4100       N  0.83544308  0.75920822  0.83271728    -0.38000
N4101       N  0.89152175  0.71705550  0.76114167    -0.37400
N4102       N  0.83572700  0.82147566  0.80171185    -0.37400
C4103       C  0.82687536  0.83705402  0.72720635    -0.04100
C4104       C  0.80979495  0.84899018  0.73317699    -0.01200
C4105       C  0.78812385  0.84851334  0.72191770     0.03800
C4106       C  0.78259357  0.83519248  0.70457973    -0.04100
C4107       C  0.79991567  0.82312648  0.69870278    -0.01200
C4108       C  0.82190451  0.82413559  0.70997852     0.03800
C4109       C  0.81438785  0.86155312  0.75112364     0.38400
C4110       C  0.79509956  0.80920976  0.68118717     0.38400
C4111       C  0.83961447  0.81193078  0.70385291     0.36800
C4112       C  0.77244208  0.86288047  0.72814143     0.36800
N4113       N  0.85376440  0.80219044  0.69903461    -0.38000
N4114       N  0.76001313  0.87438588  0.73313756    -0.38000
N4115       N  0.79144559  0.79819857  0.66719328    -0.37400
N4116       N  0.81798600  0.87139922  0.76547077    -0.37400
C4117       C  0.99318750  0.79609364  0.89381566    -0.04100
C4118       C  0.97821096  0.76718151  0.89991782    -0.01200
C4119       C  0.95597490  0.74525797  0.88935308     0.03800
C4120       C  0.94785877  0.75212174  0.87263642    -0.04100
C4121       C  0.96257921  0.78144320  0.86679309    -0.01200
C4122       C  0.98525249  0.80317502  0.87727059     0.03800
C4123       C  0.98569217  0.75999414  0.91722061     0.38400
C4124       C  0.95424606  0.78962773  0.85014683     0.38400
C4125       C  0.50093387  0.83283261  0.87084157     0.36800
C4126       C  0.94247657  0.71545170  0.89549878     0.36800
N4127       N  0.51353393  0.85648748  0.86572683    -0.38000
N4128       N  0.93181731  0.69170554  0.90043007    -0.38000
N4129       N  0.94768042  0.79623174  0.83686753    -0.37400
N4130       N  0.99158400  0.75429065  0.93104547    -0.37400
C4131       C  0.53542034  0.88165555  0.93657453    -0.04100
C4132       C  0.51435445  0.87305268  0.95039288    -0.01200
C4133       C  0.51340546  0.89405127  0.96172770     0.03800
C4134       C  0.53368241  0.92382478  0.95946526    -0.04100
C4135       C  0.55449130  0.93243473  0.94551925    -0.01200
C4136       C  0.55519597  0.91151552  0.93405964     0.03800
C4137       C  0.99412138  0.84252174  0.95332423     0.38400
C4138       C  0.57604158  0.96282098  0.94336575     0.38400
C4139       C  0.57630812  0.92086486  0.91956586     0.36800
C4140       C  0.99112479  0.88500656  0.97549100     0.36800
N4141       N  0.59323103  0.92840598  0.90805957    -0.38000
N4142       N  0.97334011  0.87784693  0.98644757    -0.38000
N4143       N  0.59323238  0.98704662  0.94171503    -0.37400
N4144       N  0.97793023  0.81817251  0.95563518    -0.37400
C4145       C  0.64846048  0.83791034  0.91891376    -0.04100
C4146       C  0.64493273  0.85584532  0.90626566    -0.01200
C4147       C  0.61837446  0.85587933  0.90518858     0.03800
C4148       C  0.59500887  0.83764276  0.91646951    -0.04100
C4149       C  0.59834686  0.81958202  0.92897057    -0.01200
C4150       C  0.62506999  0.81998217  0.93038106     0.03800
C4151       C  0.66829715  0.87371763  0.89397808     0.38400
C4152       C  0.57426499  0.80075884  0.94052218     0.38400
C4153       C  0.62882687  0.80290473  0.94423178     0.36800
C4154       C  0.61499132  0.87460612  0.89240283     0.36800
N4155       N  0.63188535  0.78943388  0.95535746    -0.38000
N4156       N  0.61231457  0.88955767  0.88220744    -0.38000
N4157       N  0.55501941  0.78569654  0.94969842    -0.37400
N4158       N  0.68693414  0.88795132  0.88417493    -0.37400
C4159       C  0.70250528  0.78443889  0.92021805    -0.04100
C4160       C  0.71154385  0.77479015  0.93528698    -0.01200
C4161       C  0.71165129  0.74825328  0.93449481     0.03800
C4162       C  0.70293719  0.73131527  0.91857058    -0.04100
C4163       C  0.69453975  0.74134795  0.90336314    -0.01200
C4164       C  0.69409704  0.76770137  0.90424044     0.03800
C4165       C  0.72010495  0.79187523  0.95175062     0.38400
C4166       C  0.68606710  0.72439538  0.88684875     0.38400
C4167       C  0.68542185  0.77788219  0.88859012     0.36800
C4168       C  0.72115849  0.73854526  0.94998149     0.36800
N4169       N  0.67850809  0.78609755  0.87615112    -0.38000
N4170       N  0.72874635  0.73073505  0.96230320    -0.38000
N4171       N  0.67947208  0.71093228  0.87364844    -0.37400
N4172       N  0.72689273  0.80551812  0.96488040    -0.37400
C4173       C  0.74273321  0.66867400  0.89613792    -0.04100
C4174       C  0.77217536  0.68412776  0.90138774    -0.01200
C4175       C  0.79385772  0.68365321  0.89051922     0.03800
C4176       C  0.78629623  0.66698414  0.87439378    -0.04100
C4177       C  0.75651290  0.65033254  0.86965835    -0.01200
C4178       C  0.73495720  0.65148971  0.88035192     0.03800
C4179       C  0.78014782  0.70046905  0.91815848     0.38400
C4180       C  0.74777460  0.63135114  0.85401321     0.38400
C4181       C  0.70476419  0.63554174  0.87484517     0.36800
C4182       C  0.82405926  0.70140816  0.89571711     0.36800
N4183       N  0.68067519  0.62286222  0.87045201    -0.38000
N4184       N  0.84812404  0.71561923  0.89989162    -0.38000
N4185       N  0.74077297  0.61612259  0.84157495    -0.37400
N4186       N  0.78636687  0.71337497  0.93157118    -0.37400
C4187       C  0.61494483  0.58374906  0.96134466    -0.04100
C4188       C  0.60630385  0.59592477  0.94734436    -0.01200
C4189       C  0.62726855  0.61792328  0.93624225     0.03800
C4190       C  0.65719161  0.62806074  0.93893036    -0.04100
C4191       C  0.66585400  0.61601025  0.95295116    -0.01200
C4192       C  0.64489126  0.59409006  0.96413315     0.03800
C4193       C  0.57579550  0.58664408  0.94473408     0.38400
C4194       C  0.69647749  0.62672417  0.95620356     0.38400
C4195       C  0.65425458  0.58186991  0.97833401     0.36800
C4196       C  0.61793284  0.63007953  0.92196407     0.36800
N4197       N  0.66174886  0.57218982  0.98969372    -0.38000
N4198       N  0.61049191  0.63990093  0.91065949    -0.38000
N4199       N  0.72092863  0.63528668  0.95871669    -0.37400
N4200       N  0.55147784  0.57926677  0.94267797    -0.37400
C4201       C  0.80765222  0.94501419  0.92006828    -0.04100
C4202       C  0.80302276  0.92254256  0.90799081    -0.01200
C4203       C  0.77696390  0.89576794  0.90865383     0.03800
C4204       C  0.75539604  0.89123846  0.92152803    -0.04100
C4205       C  0.76018963  0.91383006  0.93367231    -0.01200
C4206       C  0.78620524  0.94067894  0.93286804     0.03800
C4207       C  0.82501222  0.92718083  0.89470462     0.38400
C4208       C  0.73877880  0.90923442  0.94736582     0.38400
C4209       C  0.79101890  0.96392561  0.94521766     0.36800
C4210       C  0.77199228  0.87330883  0.89560568     0.36800
N4211       N  0.79492695  0.98254748  0.95501718    -0.38000
N4212       N  0.76797970  0.85538414  0.88520020    -0.38000
N4213       N  0.72174889  0.90557403  0.95832519    -0.37400
N4214       N  0.84253547  0.93093721  0.88408682    -0.37400
C4215       C  0.86717662  0.54655695  0.89652053    -0.04100
C4216       C  0.85173991  0.56090811  0.90132957    -0.01200
C4217       C  0.85242145  0.58265356  0.89010139     0.03800
C4218       C  0.86902386  0.59070661  0.87399454    -0.04100
C4219       C  0.88466443  0.57633807  0.86929275    -0.01200
C4220       C  0.88368289  0.55438997  0.88050019     0.03800
C4221       C  0.83519510  0.55335383  0.91797207     0.38400
C4222       C  0.90214108  0.58422712  0.85303389     0.38400
C4223       C  0.89915630  0.53931038  0.87533490     0.36800
C4224       C  0.83482122  0.59568409  0.89482854     0.36800
N4225       N  0.91251969  0.02819117  0.87233960    -0.38000
N4226       N  0.82070423  0.60598656  0.89857877    -0.38000
N4227       N  0.91601482  0.59037127  0.84003972    -0.37400
N4228       N  0.82203259  0.54733100  0.93124991    -0.37400
C4229       C  0.91186228  0.50507281  0.93850243    -0.04100
C4230       C  0.92202705  0.52325546  0.95382783    -0.01200
C4231       C  0.94418478  0.02443235  0.96457167     0.03800
C4232       C  0.95643400  0.50614964  0.96018825    -0.04100
C4233       C  0.94658232  0.48840002  0.94456605    -0.01200
C4234       C  0.92449308  0.48797148  0.93377813     0.03800
C4235       C  0.90915019  0.04158169  0.95878481     0.38400
C4236       C  0.95820997  0.46953799  0.93990532     0.38400
C4237       C  0.91459806  0.46972193  0.91780104     0.36800
C4238       C  0.95570077  0.04455730  0.97962580     0.36800
N4239       N  0.90672593  0.45512600  0.90508311    -0.38000
N4240       N  0.96493342  0.06065718  0.99160346    -0.38000
N4241       N  0.46749940  0.45452083  0.93619142    -0.37400
N4242       N  0.89897585  0.05576300  0.96265450    -0.37400
C4243       C  0.75608933  0.56011148  0.08536830    -0.04100
C4244       C  0.77478189  0.56681359  0.07041668    -0.01200
C4245       C  0.80129488  0.59313408  0.07001228     0.03800
C4246       C  0.80903476  0.61301201  0.08446567    -0.04100
C4247       C  0.78999109  0.60660451  0.09922838    -0.01200
C4248       C  0.76369790  0.58003471  0.09976590     0.03800
C4249       C  0.76677701  0.54645701  0.05552027     0.38400
C4250       C  0.79771741  0.62709610  0.11402485     0.38400
C4251       C  0.74441968  0.57312816  0.11511429     0.36800
C4252       C  0.82029442  0.60011163  0.05450752     0.36800
N4253       N  0.72903438  0.56751443  0.12736283    -0.38000
N4254       N  0.83547930  0.60577236  0.04215130    -0.38000
N4255       N  0.80388652  0.64352176  0.12578212    -0.37400
N4256       N  0.76028199  0.53019239  0.04364789    -0.37400
C4257       C  0.69846159  0.95838723  0.10794692    -0.04100
C4258       C  0.68000061  0.94711293  0.12303275    -0.01200
C4259       C  0.67930337  0.92422695  0.13302441     0.03800
C4260       C  0.69737392  0.91266525  0.12811020    -0.04100
C4261       C  0.71562217  0.92382030  0.11284905    -0.01200
C4262       C  0.71616218  0.94658537  0.10284496     0.03800
C4263       C  0.66228526  0.95962721  0.12857432     0.38400
C4264       C  0.73457830  0.91254515  0.10765808     0.38400
C4265       C  0.73499968  0.95788991  0.08723115     0.36800
C4266       C  0.65932440  0.91209541  0.14805776     0.36800
N4267       N  0.75011805  0.96703049  0.07484126    -0.38000
N4268       N  0.64333868  0.90238072  0.16001266    -0.38000
N4269       N  0.74961073  0.90348184  0.10348966    -0.37400
N4270       N  0.64821400  0.96967735  0.13297565    -0.37400
C4271       C  0.60899491  0.99820858  0.04399707    -0.04100
C4272       C  0.61966615  0.97881866  0.04085621    -0.01200
C4273       C  0.64155526  0.97954907  0.05203744     0.03800
C4274       C  0.65249122  0.99918704  0.06667576    -0.04100
C4275       C  0.64072696  0.51565133  0.07018200    -0.01200
C4276       C  0.61924669  0.51560823  0.05898776     0.03800
C4277       C  0.60898089  0.95878298  0.02572904     0.38400
C4278       C  0.64965659  0.53314138  0.08650320     0.38400
C4279       C  0.60669087  0.53361842  0.06373290     0.36800
C4280       C  0.65355412  0.96079127  0.04806586     0.36800
N4281       N  0.59672474  0.54800515  0.06755711    -0.38000
N4282       N  0.66309901  0.94580011  0.04493713    -0.38000
N4283       N  0.65677458  0.54688202  0.09959224    -0.37400
N4284       N  0.60034904  0.94267965  0.01372881    -0.37400
C4285       C  0.86412392  0.71959274  0.08255670    -0.04100
C4286       C  0.84865627  0.72486836  0.06897932    -0.01200
C4287       C  0.84925760  0.75169609  0.06836300     0.03800
C4288       C  0.86565841  0.77350672  0.08111090    -0.04100
C4289       C  0.88128413  0.76840784  0.09459287    -0.01200
C4290       C  0.88036734  0.74143097  0.09540867     0.03800
C4291       C  0.83265478  0.70297306  0.05537149     0.38400
C4292       C  0.89798770  0.79086070  0.10775368     0.38400
C4293       C  0.89511252  0.73572901  0.10994040     0.26000
C4294       C  0.83276168  0.75684330  0.05472801     0.36800
N4295       N  0.90671141  0.73107803  0.12158253    -0.38000
N4296       N  0.81955775  0.76100490  0.04391670    -0.38000
N4297       N  0.91129953  0.80883113  0.11821894    -0.37400
N4298       N  0.81993532  0.68549932  0.04451540    -0.37400
C4299       C  0.82076946  0.83169327  0.10179831    -0.04100
C4300       C  0.79090318  0.81295464  0.09839617    -0.01200
C4301       C  0.76976818  0.81338873  0.10978597     0.03800
C4302       C  0.77826342  0.83275781  0.12461647    -0.04100
C4303       C  0.80811293  0.85178114  0.12784157    -0.01200
C4304       C  0.82924384  0.85106236  0.11658448     0.03800
C4305       C  0.78184227  0.79300370  0.08321276     0.38400
C4306       C  0.81718968  0.87256910  0.14255444     0.38400
C4307       C  0.85978289  0.86946665  0.12070795     0.36800
C4308       C  0.73926578  0.79296259  0.10664747     0.36800
N4309       N  0.88412610  0.88408143  0.12407259    -0.38000
N4310       N  0.71494428  0.77664777  0.10420600    -0.38000
N4311       N  0.82448087  0.88921695  0.15425413    -0.37400
N4312       N  0.77456267  0.77697118  0.07117504    -0.37400
C4313       C  0.90696721  0.87567514  0.05990280    -0.04100
C4314       C  0.93222112  0.89740163  0.06846567    -0.01200
C4315       C  0.95397838  0.92029317  0.05829802     0.03800
C4316       C  0.95062261  0.92155773  0.03951517    -0.04100
C4317       C  0.92535845  0.89989480  0.03094551    -0.01200
C4318       C  0.90362628  0.87694619  0.04110483     0.03800
C4319       C  0.93629279  0.89560141  0.08764330     0.38400
C4320       C  0.92212700  0.90085661  0.01159025     0.38400
C4321       C  0.87805750  0.85427977  0.03219527     0.36800
C4322       C  0.98003753  0.94239378  0.06711099     0.36800
N4323       N  0.85769047  0.83608277  0.02512234    -0.38000
N4324       N  0.50086449  0.96000248  0.07412032    -0.38000
N4325       N  0.91965200  0.90165047  0.99613947    -0.37400
N4326       N  0.93970384  0.89409464  0.10291638    -0.37400
C4327       C  0.97002142  0.66621848  0.08239317    -0.04100
C4328       C  0.94968704  0.65099844  0.09609380    -0.01200
C4329       C  0.92264960  0.65008703  0.09625911     0.03800
C4330       C  0.91576961  0.66413651  0.08256763    -0.04100
C4331       C  0.93573859  0.67834400  0.06846633    -0.01200
C4332       C  0.96294136  0.67968752  0.06851451     0.03800
C4333       C  0.95667469  0.63629994  0.11000123     0.38400
C4334       C  0.92782777  0.69057433  0.05351450     0.38400
C4335       C  0.98375730  0.69498547  0.05430787     0.36800
C4336       C  0.90227578  0.63533870  0.11076911     0.36800
N4337       N  0.50045284  0.70721658  0.04302335    -0.38000
N4338       N  0.88599997  0.62355677  0.12233034    -0.38000
N4339       N  0.92133146  0.70005685  0.04153002    -0.37400
N4340       N  0.96228970  0.62452377  0.12103663    -0.37400
C4341       C  0.57310365  0.71274930  0.10306711    -0.04100
C4342       C  0.57950930  0.70469645  0.11975960    -0.01200
C4343       C  0.60223983  0.72539311  0.13055436     0.03800
C4344       C  0.61863335  0.75467365  0.12484013    -0.04100
C4345       C  0.61210959  0.76256054  0.10790811    -0.01200
C4346       C  0.58952142  0.74158811  0.09708154     0.03800
C4347       C  0.56230554  0.67498029  0.12592153     0.38400
C4348       C  0.62783628  0.79235731  0.10170112     0.38400
C4349       C  0.58316866  0.74959145  0.07968456     0.36800
C4350       C  0.60893496  0.71606372  0.14736137     0.36800
N4351       N  0.57809394  0.75590077  0.06579643    -0.38000
N4352       N  0.61414511  0.70854210  0.16077375    -0.38000
N4353       N  0.64033813  0.81607518  0.09667658    -0.37400
N4354       N  0.54847691  0.65126692  0.13074614    -0.37400
C4355       C  0.53539809  0.58224460  0.04203960    -0.04100
C4356       C  0.55056507  0.61148541  0.03639890    -0.01200
C4357       C  0.54924782  0.63313871  0.04676105     0.03800
C4358       C  0.53268490  0.62565247  0.06274766    -0.04100
C4359       C  0.51845865  0.59665312  0.06875548    -0.01200
C4360       C  0.51978831  0.57498783  0.05842743     0.03800
C4361       C  0.56641939  0.61914808  0.01949961     0.38400
C4362       C  0.50275280  0.58922983  0.08570849     0.38400
C4363       C  0.50559983  0.54531979  0.06486843     0.36800
C4364       C  0.56420432  0.66302132  0.04069985     0.36800
N4365       N  0.49435803  0.52167328  0.07002442    -0.38000
N4366       N  0.57616081  0.68689248  0.03594572    -0.38000
N4367       N  0.49031237  0.58341986  0.09925503    -0.37400
N4368       N  0.57900662  0.62523096  0.00600293    -0.37400
loop_ 
_geom_bond_atom_site_label_1 
_geom_bond_atom_site_label_2 
_geom_bond_distance 
_geom_bond_site_symmetry_2 
_ccdc_geom_bond_type 
C1            C2   1.402       .  A
C1            C6   1.401       .  A
C1         C1065   1.481       .  S
C2            C3   1.401   1_455  A
C2            H7   1.084       .  S
C3            C4   1.399   1_655  A
C3         C3235   1.479       .  S
C4            C5   1.400       .  A
C4         H2192   1.084   1_455  S
C5            C6   1.400       .  A
C5         C1082   1.477       .  S
C6            H9   1.083       .  S
H8         C2188   1.084       .  S
C10          C11   1.403       .  A
C10          C15   1.406       .  A
C10        C1037   1.487       .  S
C11          C12   1.401       .  A
C11          H16   1.084       .  S
C12          C13   1.397       .  A
C12        C1012   1.479       .  S
C13          C14   1.400       .  A
C13          H17   1.085       .  S
C14          C15   1.408       .  A
C14        C1023   1.489       .  S
C15          H18   1.083       .  S
C19          C24   1.405       .  A
C19        C1112   1.403       .  A
C19         C981   1.486       .  S
C20          C21   1.398       .  A
C20        C1111   1.402   1_545  A
C20          H25   1.084       .  S
C21          C22   1.400       .  A
C21         C967   1.481       .  S
C22        C1115   1.403       .  A
C22          H26   1.084       .  S
C23          C24   1.404       .  A
C23        C1114   1.403       .  A
C23         C998   1.488       .  S
C24          H27   1.084       .  S
C28         C970   1.477       .  S
C28          N29   1.358       .  A
C28          N33   1.357       .  A
N29          C30   1.358       .  A
C30        C1054   1.483       .  S
C30          N31   1.357       .  A
N31          C32   1.356       .  A
C32        C1009   1.480       .  S
C32          N33   1.357       .  A
C34          C39   1.407       .  A
C34        C1127   1.404   1_545  A
C34         C939   1.491       .  S
C35          C36   1.401       .  A
C35        C1126   1.404       .  A
C35          H40   1.084       .  S
C36          C37   1.399       .  A
C36         C925   1.482       .  S
C37        C1130   1.402       .  A
C37          H41   1.084       .  S
C38          C39   1.406       .  A
C38        C1129   1.402   1_545  A
C38         C953   1.489       .  S
C39          H42   1.083       .  S
C43          C44   1.405       .  A
C43          C48   1.411       .  A
C43         C914   1.499       .  S
C44          C45   1.402       .  A
C44          H49   1.084       .  S
C45          C46   1.402       .  A
C45         C886   1.490       .  S
C46          C47   1.405       .  A
C46          H50   1.084       .  S
C47          C48   1.408       .  A
C47         C897   1.496       .  S
C48          H51   1.083       .  S
C52         C928   1.488       .  S
C52          N53   1.359       .  A
C52          N57   1.359       .  A
N53          C54   1.357       .  A
C54         C883   1.481       .  S
C54          N55   1.358       .  A
N55          C56   1.359       .  A
C56         C869   1.488       .  S
C56          N57   1.359       .  A
C58          C59   1.405       .  A
C58          C63   1.409       .  A
C58        C3025   1.494   1_455  S
C59          C60   1.400       .  A
C59          H64   1.084       .  S
C60          C61   1.398       .  A
C60         C872   1.484       .  S
C61          C62   1.405       .  A
C61          H65   1.084       .  S
C62          C63   1.410       .  A
C62         C855   1.498       .  S
C63        H2250   1.083   1_455  S
H66        C2247   1.083       .  S
Zn67         O71   1.958   1_556  S
Zn67         O72   2.021       .  S
Zn67         O76   2.011   1_455  S
Zn67       O1175   2.014   1_545  S
Zn68         O71   1.966       .  S
Zn68         O73   2.013       .  S
Zn68         O75   2.038   1_554  S
Zn68         O79   2.024       .  S
Zn69       O2255   1.967       .  S
Zn69         O74   2.022   1_554  S
Zn69       O2261   2.012       .  S
Zn69       O1172   2.029   1_545  S
Zn70       O1163   1.965       .  S
Zn70         O81   2.019       .  S
Zn70         O82   2.024   1_554  S
Zn70       O2262   2.019   1_455  S
O71       Zn2253   1.967   1_455  S
O71       Zn1162   1.965   1_545  S
O72          C84   1.273       .  A
O73          C85   1.273       .  A
O74          C86   1.274       .  A
O75          C84   1.275       .  A
O76        C2270   1.273       .  A
O77       Zn2253   2.012   1_455  S
O77          C85   1.273       .  A
O78       Zn2254   2.019       .  S
O78          C87   1.272       .  A
O79        C1180   1.275   1_545  A
O80       Zn1161   2.028       .  S
O80          C87   1.273       .  A
O81          C88   1.274       .  A
O82          C89   1.274       .  A
O83       Zn1159   2.016       .  S
O83          C89   1.274       .  A
C84         C911   1.495       .  S
C85        C1079   1.474       .  S
C86         C956   1.491       .  S
C86        O2260   1.273       .  A
C87        C1040   1.481       .  S
C88         C995   1.489       .  S
C88        O1171   1.275       .  A
C89         C858   1.487       .  S
C90          C91   1.403       .  A
C90          C95   1.404       .  A
C90         C813   1.486       .  S
C91          C92   1.401       .  A
C91          H96   1.082       .  S
C92          C93   1.403       .  A
C92         C799   1.486       .  S
C93          C94   1.405       .  A
C93          H97   1.081       .  S
C94          C95   1.405       .  A
C94         C827   1.489       .  S
C95          H98   1.088       .  S
C99         C100   1.402       .  A
C99         C104   1.406   1_545  A
C99         C771   1.489       .  S
C100        C101   1.400   1_545  A
C100        H105   1.084       .  S
C101       C1194   1.401       .  A
C101        C760   1.482       .  S
C102        C103   1.403       .  A
C102       C1193   1.401       .  A
C102        H106   1.084       .  S
C103       C1196   1.408       .  A
C103        C785   1.490       .  S
C104       C1195   1.408       .  A
C104        H107   1.083       .  S
C108        C109   1.405       .  A
C108        C113   1.407       .  A
C108        C732   1.491       .  S
C109        C110   1.401       .  A
C109        H114   1.084       .  S
C110        C111   1.400       .  A
C110        C718   1.484       .  S
C111        C112   1.402       .  A
C111       H2299   1.085       .  S
C112        C113   1.406       .  A
C112       C2927   1.487   1_455  S
C113        H116   1.083       .  S
H115       C2295   1.085       .  S
C117       C2986   1.492   1_455  S
C117        N118   1.360       .  A
C117       N1214   1.361       .  A
N118       C1211   1.358       .  A
C119        C757   1.482       .  S
C119        N120   1.357       .  A
C119       N1210   1.358   1_545  A
N120        C121   1.357       .  A
C121        C715   1.485       .  S
C121        N122   1.360       .  A
N122       C1209   1.361   1_545  A
Zn123       O127   1.968       .  S
Zn123       O128   2.028       .  S
Zn123       O132   2.026       .  S
Zn123       O139   2.025       .  S
Zn124       O127   1.966       .  S
Zn124       O129   2.033       .  S
Zn124       O131   2.035       .  S
Zn124       O135   2.023       .  S
Zn125       O127   1.972       .  S
Zn125       O130   2.028       .  S
Zn125       O133   2.037       .  S
Zn125       O136   2.036       .  S
Zn126       O127   1.971       .  S
Zn126       O134   2.020       .  S
Zn126       O137   2.027       .  S
Zn126       O138   2.029       .  S
O128        C140   1.275       .  A
O129        C141   1.275       .  A
O130        C142   1.275       .  A
O131        C140   1.276       .  A
O132        C142   1.275       .  A
O133        C141   1.276       .  A
O134        C143   1.274       .  A
O135        C144   1.275       .  A
O136        C143   1.276       .  A
O137        C144   1.275       .  A
O138        C145   1.275       .  A
O139        C145   1.274       .  A
C140        C844   1.501       .  S
C141        C900   1.504       .  S
C142        C816   1.486       .  S
C143        C774   1.490       .  S
C144        C942   1.496       .  S
C145        C746   1.488       .  S
C146        C147   1.408       .  A
C146        C151   1.403       .  A
C146        C701   1.490       .  S
C147        C148   1.407       .  A
C147        H152   1.083       .  S
C148        C149   1.404       .  A
C148        C687   1.491       .  S
C149        C150   1.400       .  A
C149        H153   1.084       .  S
C150        C151   1.401       .  A
C150        C676   1.484       .  S
C151        H154   1.084       .  S
C155        C156   1.404       .  A
C155        C160   1.405       .  A
C155        C662   1.488       .  S
C156        C157   1.399   1_455  A
C156       H2345   1.084   1_455  S
C157        C158   1.398   1_655  A
C157       C2815   1.482       .  S
C158        C159   1.403       .  A
C158        H162   1.084       .  S
C159        C160   1.405       .  A
C159        C645   1.488       .  S
C160        H163   1.083       .  S
H161       C2340   1.084       .  S
C164        C169   1.407       .  A
C164       C1257   1.406       .  A
C164        C603   1.495       .  S
C165        C166   1.403       .  A
C165       C1256   1.407   1_545  A
C165        H170   1.084       .  S
C166        C167   1.400       .  A
C166        C592   1.487       .  S
C167       C1260   1.403       .  A
C167        H171   1.084       .  S
C168        C169   1.407       .  A
C168       C1259   1.403       .  A
C168        C617   1.492       .  S
C169        H172   1.083       .  S
C173        C634   1.482       .  S
C173        N174   1.359       .  A
C173        N178   1.357       .  A
N174        C175   1.360       .  A
C175        C589   1.495       .  S
C175        N176   1.360       .  A
N176        C177   1.358       .  A
C177        C673   1.488       .  S
C177        N178   1.357       .  A
Zn179       O183   1.969       .  S
Zn179       O184   2.031       .  S
Zn179       O188   2.041       .  S
Zn179       O195   2.042       .  S
Zn180       O183   1.965       .  S
Zn180       O185   2.014       .  S
Zn180       O187   2.028       .  S
Zn180       O191   2.028       .  S
Zn181       O183   1.965       .  S
Zn181       O186   2.020       .  S
Zn181       O189   2.016       .  S
Zn181       O192   2.023       .  S
Zn182       O183   1.959       .  S
Zn182       O190   2.018       .  S
Zn182       O193   2.019       .  S
Zn182       O194   2.010       .  S
O184        C196   1.275       .  A
O185        C197   1.273       .  A
O186        C198   1.273       .  A
O187        C196   1.275       .  A
O188        C198   1.277       .  A
O189        C197   1.274       .  A
O190        C199   1.273       .  A
O191        C200   1.275       .  A
O192        C199   1.274       .  A
O193        C200   1.273       .  A
O194        C201   1.273       .  A
O195        C201   1.277       .  A
C196        C606   1.493       .  S
C197        C648   1.488       .  S
C198        C690   1.491       .  S
C199        C729   1.497       .  S
C200        C788   1.500       .  S
C201        C830   1.504       .  S
C202        C203   1.405       .  A
C202        C207   1.405       .  A
C202        C578   1.490       .  S
C203        C204   1.403       .  A
C203        H208   1.084       .  S
C204        C205   1.400       .  A
C204        C547   1.488       .  S
C205        C206   1.404       .  A
C205        H209   1.084       .  S
C206        C207   1.407       .  A
C206        C561   1.494       .  S
C207        H210   1.083       .  S
C211        C212   1.406       .  A
C211        C216   1.402       .  A
C211       C2703   1.486   1_455  S
C212        C213   1.405       .  A
C212       H2401   1.083   1_455  S
C213        C214   1.401       .  A
C213        C533   1.482       .  S
C214        C215   1.398       .  A
C214        H218   1.084       .  S
C215        C216   1.400       .  A
C215        C508   1.480       .  S
C216        H219   1.085       .  S
H217       C2396   1.083       .  S
C220        C221   1.409       .  A
C220       C1317   1.405   1_545  A
C220        C477   1.496       .  S
C221        C222   1.407   1_545  A
C221        H226   1.083       .  S
C222       C1315   1.403       .  A
C222        C494   1.494       .  S
C223        C224   1.400       .  A
C223       C1314   1.403       .  A
C223        H227   1.084       .  S
C224        C225   1.401       .  A
C224        C463   1.483       .  S
C225       C1312   1.404       .  A
C225        H228   1.084       .  S
C229        C505   1.486       .  S
C229        N230   1.358       .  A
C229        N234   1.360       .  A
N230        C231   1.357       .  A
C231        C550   1.480       .  S
C231        N232   1.356       .  A
N232        C233   1.358       .  A
C233        C466   1.480       .  S
C233        N234   1.358       .  A
Zn235      O1331   1.971       .  S
Zn235       O240   2.037       .  S
Zn235       O244   2.038       .  S
Zn235      O2435   2.039   1_455  S
Zn236       O239   1.956   1_545  S
Zn236       O241   2.014       .  S
Zn236      O1335   1.994   1_545  S
Zn236      O2431   2.011   1_455  S
Zn237       O239   1.966   1_545  S
Zn237       O242   2.017       .  S
Zn237       O245   2.039       .  S
Zn237       O248   2.027       .  S
Zn238      O2423   1.965       .  S
Zn238       O249   2.024       .  S
Zn238      O2430   2.009   1_565  S
Zn238      O1342   2.022       .  S
O239      Zn1327   1.971       .  S
O239      Zn2422   1.965   1_455  S
O240        C252   1.277       .  A
O241        C253   1.273       .  A
O242        C254   1.273   1_545  A
O243      Zn1328   1.993       .  S
O243        C252   1.271       .  A
O244       C1346   1.276       .  A
O245        C253   1.275       .  A
O246      Zn2422   2.009   1_445  S
O246        C255   1.272       .  A
O247      Zn2420   2.011       .  S
O247        C256   1.273   1_545  A
O248        C255   1.275       .  A
O249        C256   1.274       .  A
O250      Zn1330   2.020       .  S
O250        C257   1.274       .  A
O251      Zn2419   2.039       .  S
O251        C257   1.276       .  A
C252        C659   1.489       .  S
C253        C704   1.501       .  S
C254        C491   1.490       .  S
C254       O1336   1.277       .  A
C255        C536   1.480       .  S
C256        C620   1.494   1_565  S
C257        C575   1.490       .  S
C258        C259   1.402       .  A
C258        C263   1.403   1_545  A
C258        C452   1.482       .  S
C259        C260   1.397   1_545  A
C259        H264   1.085       .  S
C260       C1353   1.399       .  A
C260        C424   1.480       .  S
C261        C262   1.403       .  A
C261       C1352   1.400       .  A
C261        H265   1.085       .  S
C262       C1355   1.404       .  A
C262        C435   1.486       .  S
C263       C1354   1.404       .  A
C263        H266   1.083       .  S
C267        C268   1.406       .  A
C267        C272   1.404       .  A
C267        C407   1.491       .  S
C268        C269   1.405       .  A
C268        H273   1.083       .  S
C269        C270   1.404       .  A
C269        C393   1.490       .  S
C270        C271   1.403       .  A
C270        H274   1.084       .  S
C271        C272   1.401       .  A
C271        C382   1.487       .  S
C272        H275   1.084       .  S
C276        C277   1.403       .  A
C276        C281   1.405       .  A
C276       C2535   1.488   1_455  S
C277        C278   1.401       .  A
C277       H2466   1.084   1_455  S
C278        C279   1.402       .  A
C278        C337   1.484       .  S
C279        C280   1.403       .  A
C279        H283   1.084       .  S
C280        C281   1.405       .  A
C280        C365   1.485       .  S
C281        H284   1.083       .  S
H282       C2461   1.084       .  S
C285        C379   1.480       .  S
C285        N290   1.357       .  A
C285       N1378   1.358   1_545  A
N286        C287   1.359       .  A
N286       C1377   1.358       .  A
C287        C340   1.484       .  S
C287        N288   1.359       .  A
N288       C1381   1.359       .  A
C289       C2605   1.482   1_455  S
C289        N290   1.358   1_565  A
C289       N1380   1.359       .  A
Zn291       O295   1.958       .  S
Zn291       O296   2.015       .  S
Zn291       O300   2.010       .  S
Zn291       O307   2.005       .  S
Zn292       O295   1.957       .  S
Zn292       O297   2.012       .  S
Zn292       O299   2.017       .  S
Zn292       O303   2.018       .  S
Zn293       O295   1.960       .  S
Zn293       O298   2.010       .  S
Zn293       O301   2.012       .  S
Zn293       O304   2.006       .  S
Zn294       O295   1.966       .  S
Zn294       O302   2.032       .  S
Zn294       O305   2.032       .  S
Zn294       O306   2.032       .  S
O296        C308   1.272       .  A
O297        C309   1.273       .  A
O298        C310   1.273       .  A
O299        C308   1.272       .  A
O300        C310   1.273       .  A
O301        C309   1.272       .  A
O302        C311   1.275       .  A
O303        C312   1.274       .  A
O304        C311   1.272       .  A
O305        C312   1.276       .  A
O306        C313   1.276       .  A
O307        C313   1.272       .  A
C308        C368   1.481       .  S
C309       C1068   1.498       .  S
C310        C984   1.486       .  S
C311       C1026   1.488       .  S
C312        C396   1.488       .  S
C313        C438   1.486       .  S
Zn314       O318   1.969       .  S
Zn314       O319   2.042       .  S
Zn314       O323   2.032       .  S
Zn314       O330   2.042       .  S
Zn315       O318   1.965       .  S
Zn315       O320   2.020       .  S
Zn315       O322   2.018       .  S
Zn315       O326   2.012       .  S
Zn316       O318   1.963       .  S
Zn316       O321   2.015       .  S
Zn316       O324   2.021       .  S
Zn316       O327   2.034       .  S
Zn317       O318   1.959       .  S
Zn317       O325   2.017       .  S
Zn317       O328   1.994       .  S
Zn317       O329   2.010       .  S
O319        C331   1.276       .  A
O320        C332   1.273       .  A
O321        C333   1.275       .  A
O322        C331   1.272       .  A
O323        C333   1.277       .  A
O324        C332   1.274       .  A
O325        C334   1.273       .  A
O326        C335   1.274       .  A
O327        C334   1.274       .  A
O328        C335   1.271       .  A
O329        C336   1.272       .  A
O330        C336   1.276       .  A
C331        C354   1.490       .  S
C332        C522   1.499       .  S
C333        C564   1.487       .  S
C334        C480   1.494       .  S
C335        C449   1.479       .  S
C336        C410   1.492       .  S
C337        C338   1.411       .  A
C337        C342   1.410       .  A
C338        C339   1.412       .  A
C338        C343   1.451       .  S
C339        C340   1.413       .  A
C339        C346   1.451       .  S
C340        C341   1.413       .  A
C341        C342   1.411       .  A
C341        C344   1.451       .  S
C342        C345   1.451       .  S
C343        N350   1.157   1_455  T
C344        N349   1.157       .  T
C345        N347   1.157       .  T
C346        N348   1.157   1_455  T
C351        C352   1.412       .  A
C351        C356   1.411       .  A
C351       C2460   1.488       .  S
C352        C353   1.412       .  A
C352        C357   1.451       .  S
C353        C354   1.414       .  A
C353        C360   1.450       .  S
C354        C355   1.416       .  A
C355        C356   1.413       .  A
C355        C358   1.451       .  S
C356       C2543   1.451       .  S
C357        N364   1.157       .  T
C358        N363   1.157       .  T
C359       C2540   1.451   1_455  S
C359        N361   1.157       .  T
C360        N362   1.157       .  T
C365        C366   1.412       .  A
C365        C370   1.412       .  A
C366        C367   1.411       .  A
C366        C371   1.451       .  S
C367        C368   1.412       .  A
C367        C374   1.451       .  S
C368        C369   1.412       .  A
C369        C370   1.412       .  A
C369        C372   1.451       .  S
C370        C373   1.450       .  S
C371        N378   1.157       .  T
C372        N377   1.157       .  T
C373        N375   1.157       .  T
C374        N376   1.157       .  T
C379        C380   1.411       .  A
C379        C384   1.412       .  A
C380        C381   1.411       .  A
C380        C385   1.451       .  S
C381        C382   1.413       .  A
C381        C388   1.451       .  S
C382        C383   1.413       .  A
C383        C384   1.412       .  A
C383        C386   1.450       .  S
C384        C387   1.451       .  S
C385        N392   1.157       .  T
C386        N391   1.157       .  T
C387        N389   1.157       .  T
C388        N390   1.157       .  T
C393        C394   1.413       .  A
C393        C398   1.412       .  A
C394        C395   1.413       .  A
C394        C399   1.451       .  S
C395        C396   1.414       .  A
C395        C402   1.451       .  S
C396        C397   1.415       .  A
C397        C398   1.411       .  A
C397        C400   1.452       .  S
C398        C401   1.451       .  S
C399        N406   1.157       .  T
C400        N405   1.157       .  T
C401        N403   1.157       .  T
C402        N404   1.157       .  T
C407        C408   1.413       .  A
C407        C412   1.413       .  A
C408        C409   1.413       .  A
C408        C413   1.451       .  S
C409        C410   1.415       .  A
C409        C416   1.451       .  S
C410        C411   1.417       .  A
C411        C412   1.412       .  A
C411        C414   1.452       .  S
C412        C415   1.452       .  S
C413        N420   1.157       .  T
C414        N419   1.158       .  T
C415        N417   1.157       .  T
C416        N418   1.157       .  T
C421        C426   1.414   1_565  A
C421       C1514   1.414       .  A
C421       C2473   1.482       .  S
C422        C423   1.411       .  A
C422       C1513   1.413       .  A
C422        C427   1.451       .  S
C423       C1516   1.410       .  A
C423        C430   1.451       .  S
C424        C425   1.410   1_565  A
C424       C1515   1.410       .  A
C425        C426   1.409       .  A
C425        C428   1.451       .  S
C426        C429   1.451       .  S
C427        N434   1.157       .  T
C428        N433   1.157       .  T
C429       N2615   1.157       .  T
C430        N432   1.157       .  T
N431       C2613   1.157   1_455  T
C435        C436   1.412       .  A
C435        C440   1.412       .  A
C436        C437   1.411       .  A
C436        C441   1.452       .  S
C437        C438   1.416       .  A
C437        C444   1.452       .  S
C438        C439   1.414       .  A
C439        C440   1.410       .  A
C439        C442   1.451       .  S
C440        C443   1.451       .  S
C441       N1540   1.157       .  T
C442        N447   1.157       .  T
C443        N445   1.157       .  T
C444        N446   1.157       .  T
N448       C1533   1.157   1_545  T
C449        C450   1.412       .  A
C449        C454   1.415       .  A
C450        C451   1.407       .  A
C450        C455   1.452       .  S
C451        C452   1.412       .  A
C451        C458   1.452       .  S
C452        C453   1.411       .  A
C453        C454   1.409       .  A
C453        C456   1.451       .  S
C454        C457   1.452       .  S
C455        N462   1.157       .  T
C456       N1553   1.157   1_545  T
C457        N459   1.158       .  T
C458        N460   1.157       .  T
N461       C1548   1.157       .  T
C463        C464   1.410       .  A
C463        C468   1.412       .  A
C464        C465   1.408       .  A
C464        C469   1.451       .  S
C465        C466   1.412       .  A
C465        C472   1.452       .  S
C466        C467   1.412       .  A
C467        C468   1.413       .  A
C467        C470   1.450       .  S
C468        C471   1.450       .  S
C469        N476   1.157       .  T
C470        N475   1.157       .  T
C471        N473   1.157       .  T
C472        N474   1.157       .  T
C477        C478   1.416       .  A
C477        C482   1.413       .  A
C478        C479   1.415       .  A
C478        C483   1.451       .  S
C479        C480   1.416       .  A
C479        C486   1.452       .  S
C480        C481   1.416       .  A
C481        C482   1.412       .  A
C481        C484   1.451       .  S
C482        C485   1.451       .  S
C483        N490   1.157       .  T
C484        N489   1.157       .  T
C485       N1579   1.157       .  T
C486        N488   1.158       .  T
N487       C1577   1.157       .  T
C491        C496   1.415   1_565  A
C491       C1584   1.413       .  A
C492        C493   1.412       .  A
C492       C1583   1.413       .  A
C492        C497   1.451       .  S
C493       C1586   1.414       .  A
C493        C500   1.451       .  S
C494        C495   1.413   1_565  A
C494       C1585   1.414       .  A
C495        C496   1.413       .  A
C495        C498   1.451       .  S
C496        C499   1.451       .  S
C497        N504   1.157       .  T
C498        N503   1.157       .  T
C499        N501   1.157       .  T
C500        N502   1.157       .  T
C505        C506   1.415       .  A
C505        C510   1.416       .  A
C506        C507   1.409       .  A
C506        C511   1.451       .  S
C507        C508   1.409       .  A
C507        C514   1.452       .  S
C508        C509   1.409       .  A
C509        C510   1.411       .  A
C509        C512   1.451       .  S
C510        C513   1.451       .  S
C511        N518   1.157       .  T
C512        N517   1.157       .  T
C513        N515   1.157       .  T
C514        N516   1.157       .  T
C519        C520   1.410       .  A
C519        C524   1.409       .  A
C519       C2395   1.486       .  S
C520        C521   1.413       .  A
C520       C2709   1.452       .  S
C521        C522   1.421       .  A
C521        C528   1.451       .  S
C522        C523   1.420       .  A
C523        C524   1.411       .  A
C523        C526   1.452       .  S
C524        C527   1.452       .  S
C525       C2704   1.452       .  S
C525        N532   1.157   1_655  T
C526        N531   1.157       .  T
C527        N529   1.157       .  T
C528        N530   1.158       .  T
C533        C534   1.411       .  A
C533        C538   1.411       .  A
C534        C535   1.411       .  A
C534        C539   1.451       .  S
C535        C536   1.413       .  A
C535        C542   1.451       .  S
C536        C537   1.411       .  A
C537        C538   1.410       .  A
C537        C540   1.451       .  S
C538        C541   1.451       .  S
C539        N546   1.157   1_455  T
C540        N545   1.157       .  T
C541        N543   1.157       .  T
C542        N544   1.157   1_455  T
C547        C548   1.413       .  A
C547        C552   1.414       .  A
C548        C549   1.410       .  A
C548        C553   1.451       .  S
C549        C550   1.412       .  A
C549        C556   1.451       .  S
C550        C551   1.411       .  A
C551        C552   1.411       .  A
C551        C554   1.451       .  S
C552        C555   1.451       .  S
C553        N560   1.157       .  T
C554        N559   1.157       .  T
C555        N557   1.157       .  T
C556        N558   1.157       .  T
C561        C562   1.415       .  A
C561        C566   1.415       .  A
C562        C563   1.411       .  A
C562        C567   1.452       .  S
C563        C564   1.414       .  A
C563        C570   1.452       .  S
C564        C565   1.413       .  A
C565        C566   1.413       .  A
C565        C568   1.451       .  S
C566        C569   1.451       .  S
C567        N574   1.157       .  T
C568        N573   1.157       .  T
C569        N571   1.157       .  T
C570        N572   1.157       .  T
C575        C576   1.415       .  A
C575        C580   1.415       .  A
C576        C577   1.412       .  A
C576        C581   1.451       .  S
C577        C578   1.412       .  A
C577        C584   1.451       .  S
C578        C579   1.412       .  A
C579        C580   1.415       .  A
C579        C582   1.450       .  S
C580        C583   1.451       .  S
C581        N588   1.157       .  T
C582        N587   1.157       .  T
C583        N585   1.157       .  T
C584        N586   1.157       .  T
C589        C590   1.418       .  A
C589        C594   1.419       .  A
C590        C591   1.412       .  A
C590        C595   1.452       .  S
C591        C592   1.410       .  A
C591        C598   1.451       .  S
C592        C593   1.410       .  A
C593        C594   1.413       .  A
C593        C596   1.451       .  S
C594        C597   1.451       .  S
C595        N602   1.157       .  T
C596        N601   1.157       .  T
C597        N599   1.157       .  T
C598        N600   1.157       .  T
C603        C604   1.414       .  A
C603        C608   1.414       .  A
C604        C605   1.414       .  A
C604        C609   1.451       .  S
C605        C606   1.416       .  A
C605        C612   1.451       .  S
C606        C607   1.415       .  A
C607        C608   1.413       .  A
C607        C610   1.451       .  S
C608        C611   1.450       .  S
C609        N616   1.157       .  T
C610        N615   1.157       .  T
C611        N613   1.157       .  T
C612        N614   1.157       .  T
C617        C622   1.413       .  A
C617       C1710   1.413       .  A
C618        C619   1.411       .  A
C618       C1709   1.413       .  A
C618        C623   1.451       .  S
C619        C620   1.418       .  A
C619        C626   1.453       .  S
C620       C1713   1.418   1_545  A
C621        C622   1.413       .  A
C621       C1712   1.417       .  A
C621        C624   1.451       .  S
C622        C625   1.451       .  S
C623        N630   1.157       .  T
C624        N629   1.157       .  T
C625        N627   1.157       .  T
C626       N2812   1.158       .  T
N628       C2810   1.158   1_455  T
C631        C632   1.410       .  A
C631        C636   1.411       .  A
C631       C2341   1.482       .  S
C632        C633   1.411       .  A
C632        C637   1.451       .  S
C633        C634   1.414       .  A
C633        C640   1.451       .  S
C634        C635   1.413       .  A
C635        C636   1.410       .  A
C635        C638   1.451       .  S
C636        C639   1.451       .  S
C637        N644   1.157       .  T
C638        N643   1.157       .  T
C639       N2825   1.157       .  T
C640        N642   1.157       .  T
N641       C2823   1.157   1_455  T
C645        C646   1.413       .  A
C645        C650   1.412       .  A
C646        C647   1.409       .  A
C646        C651   1.452       .  S
C647        C648   1.415       .  A
C647        C654   1.452       .  S
C648        C649   1.417       .  A
C649        C650   1.412       .  A
C649        C652   1.452       .  S
C650        C653   1.451       .  S
C651        N658   1.157       .  T
C652        N657   1.158       .  T
C653        N655   1.157       .  T
C654        N656   1.157       .  T
C659        C660   1.415       .  A
C659        C664   1.418       .  A
C660        C661   1.412       .  A
C660        C665   1.451       .  S
C661        C662   1.413       .  A
C661        C668   1.451       .  S
C662        C663   1.411       .  A
C663        C664   1.409       .  A
C663       C2850   1.452   1_455  S
C664       C2851   1.453   1_455  S
C665        N672   1.157       .  T
C666       C2847   1.452       .  S
C666        N671   1.157       .  T
C667       C2848   1.453       .  S
C667        N669   1.158       .  T
C668        N670   1.157       .  T
C673        C674   1.416       .  A
C673        C678   1.416       .  A
C674        C675   1.411       .  A
C674        C679   1.451       .  S
C675        C676   1.410       .  A
C675        C682   1.451       .  S
C676        C677   1.410       .  A
C677        C678   1.411       .  A
C677        C680   1.451       .  S
C678        C681   1.452       .  S
C679        N686   1.157       .  T
C680        N685   1.157       .  T
C681        N683   1.157       .  T
C682        N684   1.157       .  T
C687        C688   1.412       .  A
C687        C692   1.412       .  A
C688        C689   1.414       .  A
C688        C693   1.451       .  S
C689        C690   1.417       .  A
C689        C696   1.451       .  S
C690        C691   1.414       .  A
C691        C692   1.412       .  A
C691        C694   1.451       .  S
C692        C695   1.451       .  S
C693        N700   1.157       .  T
C694        N699   1.157       .  T
C695        N697   1.157       .  T
C696        N698   1.157       .  T
C701        C702   1.410       .  A
C701        C706   1.411       .  A
C702        C703   1.413       .  A
C702        C707   1.452       .  S
C703        C704   1.421       .  A
C703        C710   1.452       .  S
C704        C705   1.419       .  A
C705        C706   1.414       .  A
C705        C708   1.451       .  S
C706        C709   1.451       .  S
C707        N714   1.157       .  T
C708        N713   1.157       .  T
C709        N711   1.157       .  T
C710        N712   1.158       .  T
C715        C716   1.413       .  A
C715        C720   1.414       .  A
C716        C717   1.411       .  A
C716       C2905   1.450       .  S
C717        C718   1.411       .  A
C717       C2908   1.451       .  S
C718        C719   1.411       .  A
C719        C720   1.411       .  A
C719        C722   1.451       .  S
C720        C723   1.451       .  S
C721       C2900   1.450       .  S
C721        N728   1.157       .  T
C722        N727   1.157       .  T
C723        N725   1.157       .  T
C724       C2901   1.451       .  S
C724        N726   1.157       .  T
C729        C730   1.419       .  A
C729        C734   1.419       .  A
C730        C731   1.414       .  A
C730        C735   1.452       .  S
C731        C732   1.411       .  A
C731        C738   1.451       .  S
C732        C733   1.411       .  A
C733        C734   1.412       .  A
C733        C736   1.452       .  S
C734        C737   1.452       .  S
C735        N742   1.158       .  T
C736        N741   1.157       .  T
C737        N739   1.158       .  T
C738        N740   1.157       .  T
C743        C744   1.412       .  A
C743        C748   1.411       .  A
C743       C2296   1.487       .  S
C744        C745   1.412       .  A
C744        C749   1.451       .  S
C745        C746   1.413       .  A
C745        C752   1.451       .  S
C746        C747   1.415       .  A
C747        C748   1.413       .  A
C747        C750   1.451       .  S
C748        C751   1.451       .  S
C749       N2940   1.157       .  T
C750        N755   1.157       .  T
C751        N753   1.157       .  T
C752        N754   1.157       .  T
N756       C2933   1.157       .  T
C757        C758   1.413   1_545  A
C757       C1854   1.413       .  A
C758        C759   1.411       .  A
C758        C763   1.451       .  S
C759        C760   1.411       .  A
C759        C766   1.450       .  S
C760       C1853   1.410   1_565  A
C761        C762   1.410       .  A
C761       C1852   1.410       .  A
C761        C764   1.451       .  S
C762       C1849   1.414       .  A
C762        C765   1.451       .  S
C763        N770   1.157       .  T
C764        N769   1.157       .  T
C765        N767   1.157       .  T
C766        N768   1.157       .  T
C771        C772   1.411       .  A
C771        C776   1.413       .  A
C772        C773   1.413       .  A
C772        C777   1.451       .  S
C773        C774   1.416       .  A
C773        C780   1.451       .  S
C774        C775   1.414       .  A
C775        C776   1.413       .  A
C775        C778   1.451       .  S
C776        C779   1.451       .  S
C777        N784   1.157   1_545  T
C778        N783   1.157       .  T
C779        N781   1.157       .  T
C780        N782   1.157       .  T
C785        C786   1.410       .  A
C785        C790   1.411       .  A
C786        C787   1.412       .  A
C786        C791   1.451       .  S
C787        C788   1.419       .  A
C787        C794   1.451       .  S
C788        C789   1.421       .  A
C789        C790   1.414       .  A
C789        C792   1.452       .  S
C790        C793   1.452       .  S
C791       N1890   1.157       .  T
C792        N797   1.158       .  T
C793        N795   1.157       .  T
C794        N796   1.157       .  T
N798       C1883   1.157   1_545  T
C799        C800   1.410       .  A
C799        C804   1.410       .  A
C800        C801   1.412       .  A
C800        C805   1.451       .  S
C801        C802   1.417       .  A
C801        C808   1.451       .  S
C802        C803   1.416       .  A
C802       C2301   1.492       .  S
C803        C804   1.413       .  A
C803        C806   1.451       .  S
C804        C807   1.451       .  S
C805        N812   1.157       .  T
C806        N811   1.157       .  T
C807        N809   1.157       .  T
C808        N810   1.157       .  T
C813        C814   1.412       .  A
C813        C818   1.411       .  A
C814        C815   1.413       .  A
C814        C819   1.451       .  S
C815        C816   1.414       .  A
C815        C822   1.451       .  S
C816        C817   1.413       .  A
C817        C818   1.411       .  A
C817        C820   1.451       .  S
C818        C821   1.451       .  S
C819        N826   1.157       .  T
C820        N825   1.157       .  T
C821        N823   1.157       .  T
C822        N824   1.157       .  T
C827        C828   1.408       .  A
C827        C832   1.410       .  A
C828        C829   1.412       .  A
C828        C833   1.452       .  S
C829        C830   1.424       .  A
C829        C836   1.452       .  S
C830        C831   1.421       .  A
C831        C832   1.415       .  A
C831        C834   1.451       .  S
C832        C835   1.451       .  S
C833        N840   1.157       .  T
C834        N839   1.158       .  T
C835        N837   1.157       .  T
C836        N838   1.158       .  T
C841        C842   1.412       .  A
C841        C846   1.411       .  A
C841       C2242   1.494       .  S
C842        C843   1.413       .  A
C842        C847   1.452       .  S
C843        C844   1.419       .  A
C843        C850   1.452       .  S
C844        C845   1.420       .  A
C845        C846   1.415       .  A
C845        C848   1.451       .  S
C846       C3033   1.451       .  S
C847        N854   1.157       .  T
C848        N853   1.158       .  T
C849       C3030   1.451       .  S
C849        N851   1.157   1_655  T
C850        N852   1.157       .  T
C855        C856   1.417       .  A
C855        C860   1.418       .  A
C856        C857   1.414       .  A
C856       C3045   1.451   1_455  S
C857        C858   1.413       .  A
C857       C3048   1.452   1_455  S
C858        C859   1.412       .  A
C859        C860   1.411       .  A
C859        C862   1.452       .  S
C860        C863   1.452       .  S
C861       C3040   1.451       .  S
C861        N868   1.157       .  T
C862        N867   1.157       .  T
C863        N865   1.157       .  T
C864       C3041   1.452       .  S
C864        N866   1.157       .  T
C869        C870   1.416       .  A
C869        C874   1.415       .  A
C870        C871   1.412       .  A
C870        C875   1.451       .  S
C871        C872   1.411       .  A
C871        C878   1.451       .  S
C872        C873   1.410       .  A
C873        C874   1.411       .  A
C873        C876   1.451       .  S
C874        C877   1.451       .  S
C875        N882   1.157       .  T
C876        N881   1.157       .  T
C877        N879   1.157       .  T
C878        N880   1.157       .  T
C883        C884   1.411       .  A
C883        C888   1.411       .  A
C884        C885   1.412       .  A
C884        C889   1.451       .  S
C885        C886   1.414       .  A
C885        C892   1.451       .  S
C886        C887   1.413       .  A
C887        C888   1.411       .  A
C887        C890   1.451       .  S
C888        C891   1.451       .  S
C889        N896   1.157       .  T
C890        N895   1.157       .  T
C891        N893   1.157       .  T
C892        N894   1.157       .  T
C897        C898   1.412       .  A
C897        C902   1.412       .  A
C898        C899   1.414       .  A
C898        C903   1.452       .  S
C899        C900   1.420       .  A
C899        C906   1.451       .  S
C900        C901   1.420       .  A
C901        C902   1.416       .  A
C901        C904   1.451       .  S
C902        C905   1.451       .  S
C903        N910   1.157       .  T
C904        N909   1.158       .  T
C905        N907   1.157       .  T
C906        N908   1.157       .  T
C911        C912   1.416       .  A
C911        C916   1.415       .  A
C912        C913   1.414       .  A
C912        C917   1.452       .  S
C913        C914   1.416       .  A
C913        C920   1.452       .  S
C914        C915   1.415       .  A
C915        C916   1.415       .  A
C915        C918   1.451       .  S
C916        C919   1.451       .  S
C917        N924   1.158       .  T
C918        N923   1.157       .  T
C919        N921   1.157       .  T
C920        N922   1.157       .  T
C925        C926   1.409       .  A
C925        C930   1.410       .  A
C926        C927   1.410       .  A
C926        C931   1.451       .  S
C927        C928   1.416       .  A
C927        C934   1.451       .  S
C928        C929   1.416       .  A
C929        C930   1.412       .  A
C929        C932   1.451       .  S
C930        C933   1.451       .  S
C931        N938   1.157       .  T
C932        N937   1.157       .  T
C933        N935   1.157       .  T
C934        N936   1.157       .  T
C939        C940   1.412       .  A
C939        C944   1.412       .  A
C940        C941   1.412       .  A
C940        C945   1.452       .  S
C941        C942   1.418       .  A
C941        C948   1.452       .  S
C942        C943   1.418       .  A
C943        C944   1.414       .  A
C943        C946   1.451       .  S
C944        C947   1.451       .  S
C945        N952   1.157       .  T
C946        N951   1.157       .  T
C947       N2041   1.157       .  T
C948        N950   1.158       .  T
N949       C2039   1.157       .  T
C953        C954   1.412       .  A
C953        C958   1.412   1_545  A
C954       C2047   1.413       .  A
C954       C2051   1.451       .  S
C955       C2046   1.412       .  A
C955       C2048   1.417       .  A
C955        C962   1.451       .  S
C956        C957   1.416   1_545  A
C956       C2047   1.417       .  A
C957        C958   1.410       .  A
C957        C960   1.452       .  S
C958        C961   1.452       .  S
C959       C2046   1.451       .  S
C959        N966   1.157       .  T
C960       N3149   1.158       .  T
C961        N963   1.157       .  T
C962        N964   1.157       .  T
N965       C3144   1.158       .  T
C967        C968   1.411       .  A
C967        C972   1.411       .  A
C968        C969   1.409       .  A
C968        C973   1.451       .  S
C969        C970   1.411       .  A
C969        C976   1.451       .  S
C970        C971   1.412       .  A
C971        C972   1.409       .  A
C971        C974   1.451       .  S
C972        C975   1.451       .  S
C973        N980   1.157       .  T
C974        N979   1.157       .  T
C975        N977   1.157       .  T
C976        N978   1.157       .  T
C981        C982   1.412       .  A
C981        C986   1.413       .  A
C982        C983   1.410       .  A
C982        C987   1.451       .  S
C983        C984   1.416       .  A
C983        C990   1.452       .  S
C984        C985   1.415       .  A
C985        C986   1.410       .  A
C985        C988   1.452       .  S
C986        C989   1.452       .  S
C987        N994   1.157       .  T
C988        N993   1.158       .  T
C989        N991   1.157       .  T
C990        N992   1.157       .  T
C995        C996   1.416       .  A
C995       C2092   1.416       .  A
C996        C997   1.412       .  A
C996       C1001   1.451       .  S
C997        C998   1.412       .  A
C997       C1004   1.451       .  S
C998       C2091   1.412       .  A
C999       C1000   1.410       .  A
C999       C2090   1.412   1_545  A
C999       C1002   1.452       .  S
C1000      C2087   1.416   1_545  A
C1000      C1003   1.452       .  S
C1001      N1008   1.157       .  T
C1002      N1007   1.157       .  T
C1003      N1005   1.157       .  T
C1004      N1006   1.157       .  T
C1009      C1010   1.414       .  A
C1009      C1014   1.413       .  A
C1010      C1011   1.409       .  A
C1010      C1015   1.451       .  S
C1011      C1012   1.410       .  A
C1011      C1018   1.451       .  S
C1012      C1013   1.410       .  A
C1013      C1014   1.409       .  A
C1013      C1016   1.451       .  S
C1014      C1017   1.451       .  S
C1015      N1022   1.157       .  T
C1016      N1021   1.157       .  T
C1017      N1019   1.157       .  T
C1018      N1020   1.157       .  T
C1023      C1024   1.414       .  A
C1023      C1028   1.412       .  A
C1024      C1025   1.411       .  A
C1024      C1029   1.452       .  S
C1025      C1026   1.416       .  A
C1025      C1032   1.452       .  S
C1026      C1027   1.414       .  A
C1027      C1028   1.412       .  A
C1027      C1030   1.451       .  S
C1028      C1031   1.450       .  S
C1029      N1036   1.157       .  T
C1030      N1035   1.157       .  T
C1031      N1033   1.157       .  T
C1032      N1034   1.158       .  T
C1037      C1038   1.412       .  A
C1037      C1042   1.412       .  A
C1038      C1039   1.412       .  A
C1038      C1043   1.450       .  S
C1039      C1040   1.411       .  A
C1039      C1046   1.451       .  S
C1040      C1041   1.412       .  A
C1041      C1042   1.412       .  A
C1041      C1044   1.451       .  S
C1042      C1045   1.450       .  S
C1043      N1050   1.157       .  T
C1044      N1049   1.157   1_554  T
C1045      N1047   1.157       .  T
C1046      N3232   1.157       .  T
N1048      C3230   1.157   1_455  T
C1051      C1052   1.410       .  A
C1051      C1056   1.409       .  A
C1051      C2187   1.479       .  S
C1052      C1053   1.411       .  A
C1052      C1057   1.451       .  S
C1053      C1054   1.415       .  A
C1053      C1060   1.451       .  S
C1054      C1055   1.415       .  A
C1055      C1056   1.408       .  A
C1055      C1058   1.451       .  S
C1056      C1059   1.451       .  S
C1057      N1064   1.157       .  T
C1058      N1063   1.157       .  T
C1059      N3245   1.157       .  T
C1060      N1062   1.157       .  T
N1061      C3243   1.157   1_455  T
C1065      C1066   1.407       .  A
C1065      C1070   1.408       .  A
C1066      C1067   1.409       .  A
C1066      C1071   1.452       .  S
C1067      C1068   1.421       .  A
C1067      C1074   1.452       .  S
C1068      C1069   1.423       .  A
C1069      C1070   1.412       .  A
C1069      C1072   1.452       .  S
C1070      C1073   1.452       .  S
C1071      N1078   1.157       .  T
C1072      N1077   1.158       .  T
C1073      N1075   1.157       .  T
C1074      N1076   1.157       .  T
C1079      C1080   1.411       .  A
C1079      C1084   1.410       .  A
C1080      C1081   1.408       .  A
C1080      C1085   1.451       .  S
C1081      C1082   1.410       .  A
C1081      C1088   1.451       .  S
C1082      C1083   1.411       .  A
C1083      C1084   1.409       .  A
C1083      C1086   1.451       .  S
C1084      C1087   1.450       .  S
C1085      N1092   1.157   1_554  T
C1086      N1091   1.157       .  T
C1087      N1089   1.157       .  T
C1088      N1090   1.157       .  T
C1093      C1094   1.402       .  A
C1093      C1098   1.402       .  A
C1093      C2157   1.482       .  S
C1094      C1095   1.401   1_455  A
C1094      H1099   1.084       .  S
C1095      C1096   1.399   1_655  A
C1095      C4327   1.480       .  S
C1096      C1097   1.401       .  A
C1096      H3284   1.084   1_455  S
C1097      C1098   1.401       .  A
C1097      C2174   1.482       .  S
C1098      H1101   1.083       .  S
H1100      C3280   1.084       .  S
C1102      C1103   1.402       .  A
C1102      C1107   1.407       .  A
C1102      C2129   1.487       .  S
C1103      C1104   1.400       .  A
C1103      H1108   1.084       .  S
C1104      C1105   1.398       .  A
C1104      C2104   1.480       .  S
C1105      C1106   1.401       .  A
C1105      H1109   1.085       .  S
C1106      C1107   1.408       .  A
C1106      C2115   1.491       .  S
C1107      H1110   1.083       .  S
C1111      C1116   1.405       .  A
C1111      C2073   1.485       .  S
C1112      C1113   1.399       .  A
C1112      H1117   1.084       .  S
C1113      C1114   1.399       .  A
C1113      C2059   1.481       .  S
C1114      H1118   1.084       .  S
C1115      C1116   1.404   1_545  A
C1115      C2090   1.489   1_545  S
C1116      H1119   1.084       .  S
C1120      C2062   1.478       .  S
C1120      N1121   1.358       .  A
C1120      N1125   1.357       .  A
N1121      C1122   1.357       .  A
C1122      C2146   1.481       .  S
C1122      N1123   1.357       .  A
N1123      C1124   1.357       .  A
C1124      C2101   1.481       .  S
C1124      N1125   1.358       .  A
C1126      C1131   1.407       .  A
C1126      C2031   1.491       .  S
C1127      C1128   1.400       .  A
C1127      H1132   1.084       .  S
C1128      C1129   1.398       .  A
C1128      C2017   1.482       .  S
C1129      H1133   1.084       .  S
C1130      C1131   1.406       .  A
C1130      C2045   1.488       .  S
C1131      H1134   1.083       .  S
C1135      C1136   1.405       .  A
C1135      C1140   1.410       .  A
C1135      C2006   1.498       .  S
C1136      C1137   1.402       .  A
C1136      H1141   1.084       .  S
C1137      C1138   1.402       .  A
C1137      C1978   1.490       .  S
C1138      C1139   1.405       .  A
C1138      H1142   1.084       .  S
C1139      C1140   1.408       .  A
C1139      C1989   1.495       .  S
C1140      H1143   1.083       .  S
C1144      C2020   1.486       .  S
C1144      N1145   1.359       .  A
C1144      N1149   1.358       .  A
N1145      C1146   1.357       .  A
C1146      C1975   1.482       .  S
C1146      N1147   1.358       .  A
N1147      C1148   1.360       .  A
C1148      C1961   1.489       .  S
C1148      N1149   1.359       .  A
C1150      C1151   1.404       .  A
C1150      C1155   1.407       .  A
C1150      C4117   1.491   1_455  S
C1151      C1152   1.401       .  A
C1151      H1156   1.084       .  S
C1152      C1153   1.399       .  A
C1152      C1964   1.484       .  S
C1153      C1154   1.404       .  A
C1153      H1157   1.084       .  S
C1154      C1155   1.409       .  A
C1154      C1947   1.494       .  S
C1155      H3342   1.083   1_455  S
H1158      C3339   1.083       .  S
Zn1159     O1163   1.959   1_556  S
Zn1159     O1164   2.020       .  S
Zn1159     O1168   2.012       .  S
Zn1160     O1163   1.967       .  S
Zn1160     O1165   2.015       .  S
Zn1160     O1167   2.039   1_554  S
Zn1160     O1171   2.023       .  S
Zn1161     O3347   1.966       .  S
Zn1161     O1166   2.021   1_554  S
Zn1161     O3353   2.014       .  S
Zn1162     O3354   2.021   1_455  S
Zn1162     O1173   2.021       .  S
Zn1162     O1174   2.024   1_554  S
O1163     Zn3345   1.966   1_455  S
O1164      C1176   1.273       .  A
O1165      C1177   1.273       .  A
O1166      C1178   1.274       .  A
O1167      C1176   1.275       .  A
O1168      C3362   1.273   1_455  A
O1169     Zn3345   2.014   1_455  S
O1169      C1177   1.274       .  A
O1170     Zn3346   2.021       .  S
O1170      C1179   1.272       .  A
O1172      C1179   1.273       .  A
O1173      C1180   1.274       .  A
O1174      C1181   1.275       .  A
O1175      C1181   1.274       .  A
C1176      C2003   1.496       .  S
C1177      C2171   1.481       .  S
C1178      C2048   1.492       .  S
C1178      O3352   1.273       .  A
C1179      C2132   1.482       .  S
C1180      C2087   1.491       .  S
C1181      C1950   1.488       .  S
C1182      C1183   1.403       .  A
C1182      C1187   1.404       .  A
C1182      C1905   1.486       .  S
C1183      C1184   1.401       .  A
C1183      H1188   1.082       .  S
C1184      C1185   1.403       .  A
C1184      C1891   1.486       .  S
C1185      C1186   1.405       .  A
C1185      H1189   1.081       .  S
C1186      C1187   1.405       .  A
C1186      C1919   1.489       .  S
C1187      H1190   1.088       .  S
C1191      C1192   1.402       .  A
C1191      C1196   1.406       .  A
C1191      C1863   1.489       .  S
C1192      C1193   1.399       .  A
C1192      H1197   1.084       .  S
C1193      C1852   1.482       .  S
C1194      C1195   1.403       .  A
C1194      H1198   1.084       .  S
C1195      C1877   1.490       .  S
C1196      H1199   1.083       .  S
C1200      C1201   1.405       .  A
C1200      C1205   1.408       .  A
C1200      C1824   1.492       .  S
C1201      C1202   1.401       .  A
C1201      H1206   1.084       .  S
C1202      C1203   1.400       .  A
C1202      C1810   1.484       .  S
C1203      C1204   1.402       .  A
C1203      H3391   1.085       .  S
C1204      C1205   1.406       .  A
C1204      C4019   1.487   1_455  S
C1205      H1208   1.083       .  S
H1207      C3387   1.085       .  S
C1209      C4078   1.491   1_455  S
C1209      N1210   1.359       .  A
C1211      C1849   1.483       .  S
C1211      N1212   1.357       .  A
N1212      C1213   1.357       .  A
C1213      C1807   1.485       .  S
C1213      N1214   1.360       .  A
Zn1215     O1219   1.969       .  S
Zn1215     O1220   2.027       .  S
Zn1215     O1224   2.028       .  S
Zn1215     O1231   2.026       .  S
Zn1216     O1219   1.965       .  S
Zn1216     O1221   2.030       .  S
Zn1216     O1223   2.031       .  S
Zn1216     O1227   2.025       .  S
Zn1217     O1219   1.972       .  S
Zn1217     O1222   2.028       .  S
Zn1217     O1225   2.036       .  S
Zn1217     O1228   2.035       .  S
Zn1218     O1219   1.970       .  S
Zn1218     O1226   2.018       .  S
Zn1218     O1229   2.028       .  S
Zn1218     O1230   2.032       .  S
O1220      C1232   1.274       .  A
O1221      C1233   1.275       .  A
O1222      C1234   1.274       .  A
O1223      C1232   1.276       .  A
O1224      C1234   1.275       .  A
O1225      C1233   1.276       .  A
O1226      C1235   1.274       .  A
O1227      C1236   1.275       .  A
O1228      C1235   1.276       .  A
O1229      C1236   1.275       .  A
O1230      C1237   1.275       .  A
O1231      C1237   1.274       .  A
C1232      C1936   1.503       .  S
C1233      C1992   1.503       .  S
C1234      C1908   1.485       .  S
C1235      C1866   1.489       .  S
C1236      C2034   1.498       .  S
C1237      C1838   1.486       .  S
C1238      C1239   1.407       .  A
C1238      C1243   1.403       .  A
C1238      C1793   1.489       .  S
C1239      C1240   1.407       .  A
C1239      H1244   1.083       .  S
C1240      C1241   1.404       .  A
C1240      C1779   1.490       .  S
C1241      C1242   1.400       .  A
C1241      H1245   1.084       .  S
C1242      C1243   1.401       .  A
C1242      C1768   1.484       .  S
C1243      H1246   1.084       .  S
C1247      C1248   1.404       .  A
C1247      C1252   1.405       .  A
C1247      C1754   1.489       .  S
C1248      C1249   1.400   1_455  A
C1248      H3437   1.084   1_455  S
C1249      C1250   1.398   1_655  A
C1249      C3907   1.482       .  S
C1250      C1251   1.403       .  A
C1250      H1254   1.084       .  S
C1251      C1252   1.405       .  A
C1251      C1737   1.488       .  S
C1252      H1255   1.083       .  S
H1253      C3432   1.084       .  S
C1256      C1261   1.407       .  A
C1256      C1695   1.496       .  S
C1257      C1258   1.403       .  A
C1257      H1262   1.084       .  S
C1258      C1259   1.400       .  A
C1258      C1684   1.487       .  S
C1259      H1263   1.084       .  S
C1260      C1261   1.407   1_545  A
C1260      C1709   1.492       .  S
C1261      H1264   1.083       .  S
C1265      C1726   1.482       .  S
C1265      N1266   1.359       .  A
C1265      N1270   1.357       .  A
N1266      C1267   1.360       .  A
C1267      C1681   1.495       .  S
C1267      N1268   1.360       .  A
N1268      C1269   1.358       .  A
C1269      C1765   1.488       .  S
C1269      N1270   1.357       .  A
Zn1271     O1275   1.969       .  S
Zn1271     O1276   2.031       .  S
Zn1271     O1280   2.040       .  S
Zn1271     O1287   2.043       .  S
Zn1272     O1275   1.966       .  S
Zn1272     O1277   2.015       .  S
Zn1272     O1279   2.029       .  S
Zn1272     O1283   2.027       .  S
Zn1273     O1275   1.965       .  S
Zn1273     O1278   2.019       .  S
Zn1273     O1281   2.016       .  S
Zn1273     O1284   2.025       .  S
Zn1274     O1275   1.960       .  S
Zn1274     O1282   2.020       .  S
Zn1274     O1285   2.021       .  S
Zn1274     O1286   2.011       .  S
O1276      C1288   1.275       .  A
O1277      C1289   1.273       .  A
O1278      C1290   1.273       .  A
O1279      C1288   1.275       .  A
O1280      C1290   1.277       .  A
O1281      C1289   1.274       .  A
O1282      C1291   1.273       .  A
O1283      C1292   1.275       .  A
O1284      C1291   1.274       .  A
O1285      C1292   1.274       .  A
O1286      C1293   1.273       .  A
O1287      C1293   1.277       .  A
C1288      C1698   1.493       .  S
C1289      C1740   1.488       .  S
C1290      C1782   1.491       .  S
C1291      C1821   1.498       .  S
C1292      C1880   1.500       .  S
C1293      C1922   1.506       .  S
C1294      C1295   1.405       .  A
C1294      C1299   1.406       .  A
C1294      C1670   1.491       .  S
C1295      C1296   1.404       .  A
C1295      H1300   1.084       .  S
C1296      C1297   1.401       .  A
C1296      C1639   1.490       .  S
C1297      C1298   1.404       .  A
C1297      H1301   1.084       .  S
C1298      C1299   1.408       .  A
C1298      C1653   1.496       .  S
C1299      H1302   1.083       .  S
C1303      C1304   1.405       .  A
C1303      C1308   1.402       .  A
C1303      C3795   1.486   1_455  S
C1304      C1305   1.405       .  A
C1304      H3493   1.083   1_455  S
C1305      C1306   1.401       .  A
C1305      C1625   1.482       .  S
C1306      C1307   1.398       .  A
C1306      H1310   1.084       .  S
C1307      C1308   1.400       .  A
C1307      C1600   1.479       .  S
C1308      H1311   1.085       .  S
H1309      C3488   1.083       .  S
C1312      C1313   1.409       .  A
C1312      C1569   1.495       .  S
C1313      C1314   1.407       .  A
C1313      H1318   1.084       .  S
C1314      C1586   1.493       .  S
C1315      C1316   1.400       .  A
C1315      H1319   1.084       .  S
C1316      C1317   1.402       .  A
C1316      C1555   1.484       .  S
C1317      H1320   1.084       .  S
C1321      C1597   1.485       .  S
C1321      N1322   1.358       .  A
C1321      N1326   1.360       .  A
N1322      C1323   1.357       .  A
C1323      C1642   1.480       .  S
C1323      N1324   1.357       .  A
N1324      C1325   1.358       .  A
C1325      C1558   1.482       .  S
C1325      N1326   1.359       .  A
Zn1327     O1332   2.038       .  S
Zn1327     O1336   2.038       .  S
Zn1327     O3527   2.042   1_455  S
Zn1328     O1331   1.955       .  S
Zn1328     O1333   2.012       .  S
Zn1328     O3523   2.011   1_455  S
Zn1329     O1331   1.966       .  S
Zn1329     O1334   2.015       .  S
Zn1329     O1337   2.036       .  S
Zn1329     O1340   2.025       .  S
Zn1330     O3515   1.964       .  S
Zn1330     O3522   2.008       .  S
Zn1330     O1341   2.025       .  S
O1331     Zn3514   1.964   1_455  S
O1332      C1344   1.277       .  A
O1333      C1345   1.272       .  A
O1334      C1346   1.273       .  A
O1335      C1344   1.271       .  A
O1337      C1345   1.275       .  A
O1338     Zn3514   2.008   1_455  S
O1338      C1347   1.272       .  A
O1339     Zn3512   2.011       .  S
O1339      C1348   1.273       .  A
O1340      C1347   1.275       .  A
O1341      C1348   1.274       .  A
O1342      C1349   1.274       .  A
O1343     Zn3511   2.042       .  S
O1343      C1349   1.276       .  A
C1344      C1751   1.489       .  S
C1345      C1796   1.499       .  S
C1346      C1583   1.489       .  S
C1347      C1628   1.480       .  S
C1348      C1712   1.495       .  S
C1349      C1667   1.491       .  S
C1350      C1351   1.402       .  A
C1350      C1355   1.404       .  A
C1350      C1544   1.482       .  S
C1351      C1352   1.398       .  A
C1351      H1356   1.084       .  S
C1352      C1516   1.481       .  S
C1353      C1354   1.403       .  A
C1353      H1357   1.085       .  S
C1354      C1527   1.484       .  S
C1355      H1358   1.083       .  S
C1359      C1360   1.406       .  A
C1359      C1364   1.404       .  A
C1359      C1499   1.491       .  S
C1360      C1361   1.406       .  A
C1360      H1365   1.083       .  S
C1361      C1362   1.404       .  A
C1361      C1485   1.489       .  S
C1362      C1363   1.403       .  A
C1362      H1366   1.084       .  S
C1363      C1364   1.401       .  A
C1363      C1474   1.487       .  S
C1364      H1367   1.084       .  S
C1368      C1369   1.403       .  A
C1368      C1373   1.404       .  A
C1368      C3627   1.487   1_455  S
C1369      C1370   1.401       .  A
C1369      H3558   1.084   1_455  S
C1370      C1371   1.402       .  A
C1370      C1429   1.484       .  S
C1371      C1372   1.403       .  A
C1371      H1375   1.084       .  S
C1372      C1373   1.404       .  A
C1372      C1457   1.485       .  S
C1373      H1376   1.083       .  S
H1374      C3553   1.084       .  S
C1377      C1471   1.480       .  S
C1377      N1382   1.356       .  A
N1378      C1379   1.359       .  A
C1379      C1432   1.482       .  S
C1379      N1380   1.359       .  A
C1381      C3697   1.482   1_455  S
C1381      N1382   1.357       .  A
Zn1383     O1387   1.959       .  S
Zn1383     O1388   2.016       .  S
Zn1383     O1392   2.008       .  S
Zn1383     O1399   2.005       .  S
Zn1384     O1387   1.957       .  S
Zn1384     O1389   2.012       .  S
Zn1384     O1391   2.015       .  S
Zn1384     O1395   2.017       .  S
Zn1385     O1387   1.960       .  S
Zn1385     O1390   2.011       .  S
Zn1385     O1393   2.013       .  S
Zn1385     O1396   2.011       .  S
Zn1386     O1387   1.966       .  S
Zn1386     O1394   2.031       .  S
Zn1386     O1397   2.031       .  S
Zn1386     O1398   2.031       .  S
O1388      C1400   1.272       .  A
O1389      C1401   1.273       .  A
O1390      C1402   1.273       .  A
O1391      C1400   1.272       .  A
O1392      C1402   1.273       .  A
O1393      C1401   1.272       .  A
O1394      C1403   1.275       .  A
O1395      C1404   1.274       .  A
O1396      C1403   1.273       .  A
O1397      C1404   1.275       .  A
O1398      C1405   1.275       .  A
O1399      C1405   1.272       .  A
C1400      C1460   1.481       .  S
C1401      C2160   1.497       .  S
C1402      C2076   1.487       .  S
C1403      C2118   1.489       .  S
C1404      C1488   1.487       .  S
C1405      C1530   1.485       .  S
Zn1406     O1410   1.968       .  S
Zn1406     O1411   2.041       .  S
Zn1406     O1415   2.033       .  S
Zn1406     O1422   2.041       .  S
Zn1407     O1410   1.965       .  S
Zn1407     O1412   2.020       .  S
Zn1407     O1414   2.014       .  S
Zn1407     O1418   2.012       .  S
Zn1408     O1410   1.964       .  S
Zn1408     O1413   2.018       .  S
Zn1408     O1416   2.021       .  S
Zn1408     O1419   2.032       .  S
Zn1409     O1410   1.960       .  S
Zn1409     O1417   2.016       .  S
Zn1409     O1420   1.999       .  S
Zn1409     O1421   2.012       .  S
O1411      C1423   1.276       .  A
O1412      C1424   1.273       .  A
O1413      C1425   1.275       .  A
O1414      C1423   1.272       .  A
O1415      C1425   1.277       .  A
O1416      C1424   1.274       .  A
O1417      C1426   1.273       .  A
O1418      C1427   1.274       .  A
O1419      C1426   1.274       .  A
O1420      C1427   1.271       .  A
O1421      C1428   1.273       .  A
O1422      C1428   1.276       .  A
C1423      C1446   1.489       .  S
C1424      C1614   1.500       .  S
C1425      C1656   1.489       .  S
C1426      C1572   1.493       .  S
C1427      C1541   1.480       .  S
C1428      C1502   1.492       .  S
C1429      C1430   1.411       .  A
C1429      C1434   1.411       .  A
C1430      C1431   1.412       .  A
C1430      C1435   1.451       .  S
C1431      C1432   1.413       .  A
C1431      C1438   1.451       .  S
C1432      C1433   1.413       .  A
C1433      C1434   1.411       .  A
C1433      C1436   1.451       .  S
C1434      C1437   1.451       .  S
C1435      N1442   1.157   1_455  T
C1436      N1441   1.157       .  T
C1437      N1439   1.157       .  T
C1438      N1440   1.157   1_455  T
C1443      C1444   1.412       .  A
C1443      C1448   1.411       .  A
C1443      C3552   1.487       .  S
C1444      C1445   1.412       .  A
C1444      C1449   1.451       .  S
C1445      C1446   1.413       .  A
C1445      C1452   1.450       .  S
C1446      C1447   1.416       .  A
C1447      C1448   1.413       .  A
C1447      C1450   1.451       .  S
C1448      C3635   1.451       .  S
C1449      N1456   1.157       .  T
C1450      N1455   1.157       .  T
C1451      C3632   1.451   1_455  S
C1451      N1453   1.157       .  T
C1452      N1454   1.157       .  T
C1457      C1458   1.411       .  A
C1457      C1462   1.411       .  A
C1458      C1459   1.411       .  A
C1458      C1463   1.451       .  S
C1459      C1460   1.412       .  A
C1459      C1466   1.451       .  S
C1460      C1461   1.412       .  A
C1461      C1462   1.411       .  A
C1461      C1464   1.451       .  S
C1462      C1465   1.450       .  S
C1463      N1470   1.157       .  T
C1464      N1469   1.157       .  T
C1465      N1467   1.157       .  T
C1466      N1468   1.157       .  T
C1471      C1472   1.411       .  A
C1471      C1476   1.412       .  A
C1472      C1473   1.411       .  A
C1472      C1477   1.451       .  S
C1473      C1474   1.413       .  A
C1473      C1480   1.451       .  S
C1474      C1475   1.413       .  A
C1475      C1476   1.411       .  A
C1475      C1478   1.450       .  S
C1476      C1479   1.451       .  S
C1477      N1484   1.157       .  T
C1478      N1483   1.157       .  T
C1479      N1481   1.157       .  T
C1480      N1482   1.157       .  T
C1485      C1486   1.413       .  A
C1485      C1490   1.412       .  A
C1486      C1487   1.413       .  A
C1486      C1491   1.451       .  S
C1487      C1488   1.413       .  A
C1487      C1494   1.451       .  S
C1488      C1489   1.414       .  A
C1489      C1490   1.411       .  A
C1489      C1492   1.452       .  S
C1490      C1493   1.451       .  S
C1491      N1498   1.157       .  T
C1492      N1497   1.157       .  T
C1493      N1495   1.157       .  T
C1494      N1496   1.157       .  T
C1499      C1500   1.412       .  A
C1499      C1504   1.413       .  A
C1500      C1501   1.413       .  A
C1500      C1505   1.451       .  S
C1501      C1502   1.415       .  A
C1501      C1508   1.451       .  S
C1502      C1503   1.416       .  A
C1503      C1504   1.412       .  A
C1503      C1506   1.452       .  S
C1504      C1507   1.452       .  S
C1505      N1512   1.157       .  T
C1506      N1511   1.157       .  T
C1507      N1509   1.157       .  T
C1508      N1510   1.157       .  T
C1513      C1518   1.413       .  A
C1513      C3565   1.482       .  S
C1514      C1515   1.410       .  A
C1514      C1519   1.451       .  S
C1515      C1522   1.451       .  S
C1516      C1517   1.410       .  A
C1517      C1518   1.409       .  A
C1517      C1520   1.451       .  S
C1518      C1521   1.451       .  S
C1519      N1526   1.157       .  T
C1520      N1525   1.157       .  T
C1521      N3707   1.157       .  T
C1522      N1524   1.157       .  T
N1523      C3705   1.157   1_455  T
C1527      C1528   1.411       .  A
C1527      C1532   1.411       .  A
C1528      C1529   1.411       .  A
C1528      C1533   1.452       .  S
C1529      C1530   1.415       .  A
C1529      C1536   1.451       .  S
C1530      C1531   1.414       .  A
C1531      C1532   1.410       .  A
C1531      C1534   1.451       .  S
C1532      C1535   1.451       .  S
C1534      N1539   1.157       .  T
C1535      N1537   1.157       .  T
C1536      N1538   1.157       .  T
C1541      C1542   1.413       .  A
C1541      C1546   1.415       .  A
C1542      C1543   1.408       .  A
C1542      C1547   1.452       .  S
C1543      C1544   1.412       .  A
C1543      C1550   1.451       .  S
C1544      C1545   1.411       .  A
C1545      C1546   1.410       .  A
C1545      C1548   1.451       .  S
C1546      C1549   1.452       .  S
C1547      N1554   1.157       .  T
C1549      N1551   1.158       .  T
C1550      N1552   1.157       .  T
C1555      C1556   1.410       .  A
C1555      C1560   1.412       .  A
C1556      C1557   1.409       .  A
C1556      C1561   1.451       .  S
C1557      C1558   1.412       .  A
C1557      C1564   1.451       .  S
C1558      C1559   1.413       .  A
C1559      C1560   1.413       .  A
C1559      C1562   1.450       .  S
C1560      C1563   1.450       .  S
C1561      N1568   1.157       .  T
C1562      N1567   1.157       .  T
C1563      N1565   1.157       .  T
C1564      N1566   1.157       .  T
C1569      C1570   1.415       .  A
C1569      C1574   1.413       .  A
C1570      C1571   1.414       .  A
C1570      C1575   1.452       .  S
C1571      C1572   1.416       .  A
C1571      C1578   1.452       .  S
C1572      C1573   1.416       .  A
C1573      C1574   1.412       .  A
C1573      C1576   1.451       .  S
C1574      C1577   1.451       .  S
C1575      N1582   1.157       .  T
C1576      N1581   1.157       .  T
C1578      N1580   1.158       .  T
C1583      C1588   1.415       .  A
C1584      C1585   1.413       .  A
C1584      C1589   1.451       .  S
C1585      C1592   1.451       .  S
C1586      C1587   1.413       .  A
C1587      C1588   1.413       .  A
C1587      C1590   1.451       .  S
C1588      C1591   1.451       .  S
C1589      N1596   1.157       .  T
C1590      N1595   1.157       .  T
C1591      N1593   1.157       .  T
C1592      N1594   1.157       .  T
C1597      C1598   1.414       .  A
C1597      C1602   1.415       .  A
C1598      C1599   1.409       .  A
C1598      C1603   1.451       .  S
C1599      C1600   1.409       .  A
C1599      C1606   1.452       .  S
C1600      C1601   1.409       .  A
C1601      C1602   1.411       .  A
C1601      C1604   1.451       .  S
C1602      C1605   1.451       .  S
C1603      N1610   1.157       .  T
C1604      N1609   1.157       .  T
C1605      N1607   1.157       .  T
C1606      N1608   1.157       .  T
C1611      C1612   1.409       .  A
C1611      C1616   1.408       .  A
C1611      C3487   1.486       .  S
C1612      C1613   1.414       .  A
C1612      C3801   1.452       .  S
C1613      C1614   1.422       .  A
C1613      C1620   1.451       .  S
C1614      C1615   1.421       .  A
C1615      C1616   1.411       .  A
C1615      C1618   1.452       .  S
C1616      C1619   1.452       .  S
C1617      C3796   1.452   1_455  S
C1617      N1624   1.157       .  T
C1618      N1623   1.157       .  T
C1619      N1621   1.157       .  T
C1620      N1622   1.158       .  T
C1625      C1626   1.411       .  A
C1625      C1630   1.411       .  A
C1626      C1627   1.411       .  A
C1626      C1631   1.451       .  S
C1627      C1628   1.413       .  A
C1627      C1634   1.451       .  S
C1628      C1629   1.412       .  A
C1629      C1630   1.410       .  A
C1629      C1632   1.451       .  S
C1630      C1633   1.451       .  S
C1631      N1638   1.157   1_455  T
C1632      N1637   1.157       .  T
C1633      N1635   1.157       .  T
C1634      N1636   1.157   1_455  T
C1639      C1640   1.414       .  A
C1639      C1644   1.414       .  A
C1640      C1641   1.411       .  A
C1640      C1645   1.451       .  S
C1641      C1642   1.411       .  A
C1641      C1648   1.451       .  S
C1642      C1643   1.411       .  A
C1643      C1644   1.412       .  A
C1643      C1646   1.451       .  S
C1644      C1647   1.451       .  S
C1645      N1652   1.157       .  T
C1646      N1651   1.157       .  T
C1647      N1649   1.157       .  T
C1648      N1650   1.157       .  T
C1653      C1654   1.416       .  A
C1653      C1658   1.416       .  A
C1654      C1655   1.411       .  A
C1654      C1659   1.452       .  S
C1655      C1656   1.414       .  A
C1655      C1662   1.452       .  S
C1656      C1657   1.414       .  A
C1657      C1658   1.414       .  A
C1657      C1660   1.451       .  S
C1658      C1661   1.451       .  S
C1659      N1666   1.157       .  T
C1660      N1665   1.157       .  T
C1661      N1663   1.157       .  T
C1662      N1664   1.157       .  T
C1667      C1668   1.415       .  A
C1667      C1672   1.415       .  A
C1668      C1669   1.412       .  A
C1668      C1673   1.451       .  S
C1669      C1670   1.412       .  A
C1669      C1676   1.451       .  S
C1670      C1671   1.413       .  A
C1671      C1672   1.415       .  A
C1671      C1674   1.450       .  S
C1672      C1675   1.450       .  S
C1673      N1680   1.157       .  T
C1674      N1679   1.157       .  T
C1675      N1677   1.157       .  T
C1676      N1678   1.157       .  T
C1681      C1682   1.418       .  A
C1681      C1686   1.419       .  A
C1682      C1683   1.412       .  A
C1682      C1687   1.452       .  S
C1683      C1684   1.410       .  A
C1683      C1690   1.451       .  S
C1684      C1685   1.410       .  A
C1685      C1686   1.413       .  A
C1685      C1688   1.451       .  S
C1686      C1689   1.451       .  S
C1687      N1694   1.157       .  T
C1688      N1693   1.157       .  T
C1689      N1691   1.157       .  T
C1690      N1692   1.157       .  T
C1695      C1696   1.414       .  A
C1695      C1700   1.414       .  A
C1696      C1697   1.414       .  A
C1696      C1701   1.451       .  S
C1697      C1698   1.416       .  A
C1697      C1704   1.451       .  S
C1698      C1699   1.415       .  A
C1699      C1700   1.413       .  A
C1699      C1702   1.451       .  S
C1700      C1703   1.450       .  S
C1701      N1708   1.157       .  T
C1702      N1707   1.157       .  T
C1703      N1705   1.157       .  T
C1704      N1706   1.157       .  T
C1709      C1714   1.413   1_545  A
C1710      C1711   1.411       .  A
C1710      C1715   1.451       .  S
C1711      C1712   1.418       .  A
C1711      C1718   1.453       .  S
C1713      C1714   1.413       .  A
C1713      C1716   1.451       .  S
C1714      C1717   1.451       .  S
C1715      N1722   1.157       .  T
C1716      N1721   1.157       .  T
C1717      N1719   1.157       .  T
C1718      N3904   1.158       .  T
N1720      C3902   1.158   1_455  T
C1723      C1724   1.410       .  A
C1723      C1728   1.411       .  A
C1723      C3433   1.482       .  S
C1724      C1725   1.411       .  A
C1724      C1729   1.451       .  S
C1725      C1726   1.414       .  A
C1725      C1732   1.451       .  S
C1726      C1727   1.413       .  A
C1727      C1728   1.410       .  A
C1727      C1730   1.451       .  S
C1728      C1731   1.451       .  S
C1729      N1736   1.157       .  T
C1730      N1735   1.157       .  T
C1731      N3917   1.157       .  T
C1732      N1734   1.157       .  T
N1733      C3915   1.157   1_455  T
C1737      C1738   1.413       .  A
C1737      C1742   1.412       .  A
C1738      C1739   1.409       .  A
C1738      C1743   1.452       .  S
C1739      C1740   1.415       .  A
C1739      C1746   1.452       .  S
C1740      C1741   1.417       .  A
C1741      C1742   1.412       .  A
C1741      C1744   1.452       .  S
C1742      C1745   1.451       .  S
C1743      N1750   1.157       .  T
C1744      N1749   1.157       .  T
C1745      N1747   1.157       .  T
C1746      N1748   1.157       .  T
C1751      C1752   1.415       .  A
C1751      C1756   1.418       .  A
C1752      C1753   1.412       .  A
C1752      C1757   1.451       .  S
C1753      C1754   1.413       .  A
C1753      C1760   1.451       .  S
C1754      C1755   1.412       .  A
C1755      C1756   1.410       .  A
C1755      C3942   1.452   1_455  S
C1756      C3943   1.453   1_455  S
C1757      N1764   1.157       .  T
C1758      C3939   1.452       .  S
C1758      N1763   1.157       .  T
C1759      C3940   1.453       .  S
C1759      N1761   1.158       .  T
C1760      N1762   1.157       .  T
C1765      C1766   1.416       .  A
C1765      C1770   1.417       .  A
C1766      C1767   1.411       .  A
C1766      C1771   1.451       .  S
C1767      C1768   1.410       .  A
C1767      C1774   1.451       .  S
C1768      C1769   1.410       .  A
C1769      C1770   1.411       .  A
C1769      C1772   1.451       .  S
C1770      C1773   1.452       .  S
C1771      N1778   1.157       .  T
C1772      N1777   1.157       .  T
C1773      N1775   1.157       .  T
C1774      N1776   1.157       .  T
C1779      C1780   1.412       .  A
C1779      C1784   1.412       .  A
C1780      C1781   1.414       .  A
C1780      C1785   1.451       .  S
C1781      C1782   1.417       .  A
C1781      C1788   1.451       .  S
C1782      C1783   1.414       .  A
C1783      C1784   1.412       .  A
C1783      C1786   1.451       .  S
C1784      C1787   1.451       .  S
C1785      N1792   1.157       .  T
C1786      N1791   1.157       .  T
C1787      N1789   1.157       .  T
C1788      N1790   1.157       .  T
C1793      C1794   1.410       .  A
C1793      C1798   1.411       .  A
C1794      C1795   1.413       .  A
C1794      C1799   1.452       .  S
C1795      C1796   1.421       .  A
C1795      C1802   1.452       .  S
C1796      C1797   1.419       .  A
C1797      C1798   1.413       .  A
C1797      C1800   1.451       .  S
C1798      C1801   1.451       .  S
C1799      N1806   1.157       .  T
C1800      N1805   1.157       .  T
C1801      N1803   1.157       .  T
C1802      N1804   1.158       .  T
C1807      C1808   1.413       .  A
C1807      C1812   1.414       .  A
C1808      C1809   1.411       .  A
C1808      C3997   1.450       .  S
C1809      C1810   1.411       .  A
C1809      C4000   1.451       .  S
C1810      C1811   1.411       .  A
C1811      C1812   1.411       .  A
C1811      C1814   1.451       .  S
C1812      C1815   1.451       .  S
C1813      C3992   1.450       .  S
C1813      N1820   1.157       .  T
C1814      N1819   1.157       .  T
C1815      N1817   1.157       .  T
C1816      C3993   1.451       .  S
C1816      N1818   1.157       .  T
C1821      C1822   1.419       .  A
C1821      C1826   1.419       .  A
C1822      C1823   1.414       .  A
C1822      C1827   1.452       .  S
C1823      C1824   1.412       .  A
C1823      C1830   1.451       .  S
C1824      C1825   1.412       .  A
C1825      C1826   1.412       .  A
C1825      C1828   1.452       .  S
C1826      C1829   1.452       .  S
C1827      N1834   1.158       .  T
C1828      N1833   1.157       .  T
C1829      N1831   1.158       .  T
C1830      N1832   1.157       .  T
C1835      C1836   1.412       .  A
C1835      C1840   1.411       .  A
C1835      C3388   1.487       .  S
C1836      C1837   1.412       .  A
C1836      C1841   1.451       .  S
C1837      C1838   1.413       .  A
C1837      C1844   1.451       .  S
C1838      C1839   1.414       .  A
C1839      C1840   1.413       .  A
C1839      C1842   1.451       .  S
C1840      C1843   1.450       .  S
C1841      N4032   1.157       .  T
C1842      N1847   1.157       .  T
C1843      N1845   1.157       .  T
C1844      N1846   1.157       .  T
N1848      C4025   1.157       .  T
C1849      C1850   1.413       .  A
C1850      C1851   1.411       .  A
C1850      C1855   1.451       .  S
C1851      C1852   1.411       .  A
C1851      C1858   1.450       .  S
C1853      C1854   1.410       .  A
C1853      C1856   1.451       .  S
C1854      C1857   1.451       .  S
C1855      N1862   1.157       .  T
C1856      N1861   1.157       .  T
C1857      N1859   1.157       .  T
C1858      N1860   1.157       .  T
C1863      C1864   1.411       .  A
C1863      C1868   1.413       .  A
C1864      C1865   1.412       .  A
C1864      C1869   1.451       .  S
C1865      C1866   1.416       .  A
C1865      C1872   1.451       .  S
C1866      C1867   1.414       .  A
C1867      C1868   1.413       .  A
C1867      C1870   1.451       .  S
C1868      C1871   1.451       .  S
C1869      N1876   1.157       .  T
C1870      N1875   1.157       .  T
C1871      N1873   1.157       .  T
C1872      N1874   1.157       .  T
C1877      C1878   1.410       .  A
C1877      C1882   1.411       .  A
C1878      C1879   1.412       .  A
C1878      C1883   1.451       .  S
C1879      C1880   1.419       .  A
C1879      C1886   1.451       .  S
C1880      C1881   1.421       .  A
C1881      C1882   1.414       .  A
C1881      C1884   1.452       .  S
C1882      C1885   1.452       .  S
C1884      N1889   1.158       .  T
C1885      N1887   1.157       .  T
C1886      N1888   1.157       .  T
C1891      C1892   1.410       .  A
C1891      C1896   1.410       .  A
C1892      C1893   1.412       .  A
C1892      C1897   1.451       .  S
C1893      C1894   1.417       .  A
C1893      C1900   1.451       .  S
C1894      C1895   1.416       .  A
C1894      C3393   1.491       .  S
C1895      C1896   1.413       .  A
C1895      C1898   1.451       .  S
C1896      C1899   1.451       .  S
C1897      N1904   1.157       .  T
C1898      N1903   1.157       .  T
C1899      N1901   1.157       .  T
C1900      N1902   1.157       .  T
C1905      C1906   1.412       .  A
C1905      C1910   1.411       .  A
C1906      C1907   1.413       .  A
C1906      C1911   1.451       .  S
C1907      C1908   1.414       .  A
C1907      C1914   1.451       .  S
C1908      C1909   1.413       .  A
C1909      C1910   1.411       .  A
C1909      C1912   1.451       .  S
C1910      C1913   1.451       .  S
C1911      N1918   1.157       .  T
C1912      N1917   1.157       .  T
C1913      N1915   1.157       .  T
C1914      N1916   1.157       .  T
C1919      C1920   1.408       .  A
C1919      C1924   1.410       .  A
C1920      C1921   1.412       .  A
C1920      C1925   1.452       .  S
C1921      C1922   1.424       .  A
C1921      C1928   1.452       .  S
C1922      C1923   1.422       .  A
C1923      C1924   1.416       .  A
C1923      C1926   1.451       .  S
C1924      C1927   1.451       .  S
C1925      N1932   1.157       .  T
C1926      N1931   1.158       .  T
C1927      N1929   1.157       .  T
C1928      N1930   1.158       .  T
C1933      C1934   1.410       .  A
C1933      C1938   1.410       .  A
C1933      C3334   1.491       .  S
C1934      C1935   1.413       .  A
C1934      C1939   1.452       .  S
C1935      C1936   1.420       .  A
C1935      C1942   1.452       .  S
C1936      C1937   1.422       .  A
C1937      C1938   1.415       .  A
C1937      C1940   1.451       .  S
C1938      C4125   1.451       .  S
C1939      N1946   1.157       .  T
C1940      N1945   1.158       .  T
C1941      C4122   1.451   1_455  S
C1941      N1943   1.157       .  T
C1942      N1944   1.157       .  T
C1947      C1948   1.415       .  A
C1947      C1952   1.415       .  A
C1948      C1949   1.414       .  A
C1948      C4137   1.451   1_455  S
C1949      C1950   1.415       .  A
C1949      C4140   1.452   1_455  S
C1950      C1951   1.414       .  A
C1951      C1952   1.410       .  A
C1951      C1954   1.452       .  S
C1952      C1955   1.451       .  S
C1953      C4132   1.451       .  S
C1953      N1960   1.157       .  T
C1954      N1959   1.157       .  T
C1955      N1957   1.157       .  T
C1956      C4133   1.452       .  S
C1956      N1958   1.158       .  T
C1961      C1962   1.417       .  A
C1961      C1966   1.415       .  A
C1962      C1963   1.412       .  A
C1962      C1967   1.451       .  S
C1963      C1964   1.410       .  A
C1963      C1970   1.451       .  S
C1964      C1965   1.410       .  A
C1965      C1966   1.411       .  A
C1965      C1968   1.451       .  S
C1966      C1969   1.451       .  S
C1967      N1974   1.157       .  T
C1968      N1973   1.157       .  T
C1969      N1971   1.157       .  T
C1970      N1972   1.157       .  T
C1975      C1976   1.411       .  A
C1975      C1980   1.412       .  A
C1976      C1977   1.412       .  A
C1976      C1981   1.451       .  S
C1977      C1978   1.414       .  A
C1977      C1984   1.451       .  S
C1978      C1979   1.413       .  A
C1979      C1980   1.412       .  A
C1979      C1982   1.451       .  S
C1980      C1983   1.451       .  S
C1981      N1988   1.157       .  T
C1982      N1987   1.157       .  T
C1983      N1985   1.157       .  T
C1984      N1986   1.157       .  T
C1989      C1990   1.412       .  A
C1989      C1994   1.412       .  A
C1990      C1991   1.413       .  A
C1990      C1995   1.452       .  S
C1991      C1992   1.420       .  A
C1991      C1998   1.451       .  S
C1992      C1993   1.420       .  A
C1993      C1994   1.416       .  A
C1993      C1996   1.451       .  S
C1994      C1997   1.451       .  S
C1995      N2002   1.157       .  T
C1996      N2001   1.158       .  T
C1997      N1999   1.157       .  T
C1998      N2000   1.157       .  T
C2003      C2004   1.417       .  A
C2003      C2008   1.415       .  A
C2004      C2005   1.414       .  A
C2004      C2009   1.452       .  S
C2005      C2006   1.415       .  A
C2005      C2012   1.452       .  S
C2006      C2007   1.414       .  A
C2007      C2008   1.415       .  A
C2007      C2010   1.451       .  S
C2008      C2011   1.451       .  S
C2009      N2016   1.158       .  T
C2010      N2015   1.157       .  T
C2011      N2013   1.157       .  T
C2012      N2014   1.157       .  T
C2017      C2018   1.409       .  A
C2017      C2022   1.410       .  A
C2018      C2019   1.410       .  A
C2018      C2023   1.451       .  S
C2019      C2020   1.416       .  A
C2019      C2026   1.451       .  S
C2020      C2021   1.415       .  A
C2021      C2022   1.411       .  A
C2021      C2024   1.451       .  S
C2022      C2025   1.451       .  S
C2023      N2030   1.157       .  T
C2024      N2029   1.157       .  T
C2025      N2027   1.157       .  T
C2026      N2028   1.157       .  T
C2031      C2032   1.411       .  A
C2031      C2036   1.411       .  A
C2032      C2033   1.412       .  A
C2032      C2037   1.452       .  S
C2033      C2034   1.419       .  A
C2033      C2040   1.452       .  S
C2034      C2035   1.419       .  A
C2035      C2036   1.414       .  A
C2035      C2038   1.451       .  S
C2036      C2039   1.451       .  S
C2037      N2044   1.157       .  T
C2038      N2043   1.157       .  T
C2040      N2042   1.158       .  T
C2045      C2046   1.411       .  A
C2045      C2050   1.412       .  A
C2047      C2054   1.451       .  S
C2048      C2049   1.417       .  A
C2049      C2050   1.411       .  A
C2049      C2052   1.452       .  S
C2050      C2053   1.452       .  S
C2051      N2058   1.157       .  T
C2052      N4241   1.158       .  T
C2053      N2055   1.157       .  T
C2054      N2056   1.158       .  T
N2057      C4236   1.158       .  T
C2059      C2060   1.411       .  A
C2059      C2064   1.411       .  A
C2060      C2061   1.409       .  A
C2060      C2065   1.451       .  S
C2061      C2062   1.412       .  A
C2061      C2068   1.451       .  S
C2062      C2063   1.412       .  A
C2063      C2064   1.410       .  A
C2063      C2066   1.451       .  S
C2064      C2067   1.451       .  S
C2065      N2072   1.157       .  T
C2066      N2071   1.157       .  T
C2067      N2069   1.157       .  T
C2068      N2070   1.157       .  T
C2073      C2074   1.411       .  A
C2073      C2078   1.413       .  A
C2074      C2075   1.411       .  A
C2074      C2079   1.451       .  S
C2075      C2076   1.416       .  A
C2075      C2082   1.452       .  S
C2076      C2077   1.416       .  A
C2077      C2078   1.409       .  A
C2077      C2080   1.452       .  S
C2078      C2081   1.452       .  S
C2079      N2086   1.157       .  T
C2080      N2085   1.157       .  T
C2081      N2083   1.157       .  T
C2082      N2084   1.158       .  T
C2087      C2088   1.417       .  A
C2088      C2089   1.413       .  A
C2088      C2093   1.451       .  S
C2089      C2090   1.413       .  A
C2089      C2096   1.451       .  S
C2091      C2092   1.410       .  A
C2091      C2094   1.452       .  S
C2092      C2095   1.452       .  S
C2093      N2100   1.157       .  T
C2094      N2099   1.157       .  T
C2095      N2097   1.157       .  T
C2096      N2098   1.157       .  T
C2101      C2102   1.414       .  A
C2101      C2106   1.414       .  A
C2102      C2103   1.409       .  A
C2102      C2107   1.451       .  S
C2103      C2104   1.410       .  A
C2103      C2110   1.451       .  S
C2104      C2105   1.410       .  A
C2105      C2106   1.410       .  A
C2105      C2108   1.451       .  S
C2106      C2109   1.451       .  S
C2107      N2114   1.157       .  T
C2108      N2113   1.157       .  T
C2109      N2111   1.157       .  T
C2110      N2112   1.157       .  T
C2115      C2116   1.415       .  A
C2115      C2120   1.413       .  A
C2116      C2117   1.412       .  A
C2116      C2121   1.452       .  S
C2117      C2118   1.415       .  A
C2117      C2124   1.452       .  S
C2118      C2119   1.414       .  A
C2119      C2120   1.412       .  A
C2119      C2122   1.451       .  S
C2120      C2123   1.450       .  S
C2121      N2128   1.157       .  T
C2122      N2127   1.157       .  T
C2123      N2125   1.157       .  T
C2124      N2126   1.158       .  T
C2129      C2130   1.412       .  A
C2129      C2134   1.412       .  A
C2130      C2131   1.412       .  A
C2130      C2135   1.450       .  S
C2131      C2132   1.411       .  A
C2131      C2138   1.451       .  S
C2132      C2133   1.412       .  A
C2133      C2134   1.413       .  A
C2133      C2136   1.451       .  S
C2134      C2137   1.450       .  S
C2135      N2142   1.157       .  T
C2136      N2141   1.157   1_554  T
C2137      N2139   1.157       .  T
C2138      N4324   1.157       .  T
N2140      C4322   1.157   1_455  T
C2143      C2144   1.411       .  A
C2143      C2148   1.409       .  A
C2143      C3279   1.480       .  S
C2144      C2145   1.411       .  A
C2144      C2149   1.451       .  S
C2145      C2146   1.414       .  A
C2145      C2152   1.451       .  S
C2146      C2147   1.413       .  A
C2147      C2148   1.409       .  A
C2147      C2150   1.451       .  S
C2148      C2151   1.451       .  S
C2149      N2156   1.157       .  T
C2150      N2155   1.157       .  T
C2151      N4337   1.157       .  T
C2152      N2154   1.157       .  T
N2153      C4335   1.157   1_455  T
C2157      C2158   1.408       .  A
C2157      C2162   1.408       .  A
C2158      C2159   1.409       .  A
C2158      C2163   1.452       .  S
C2159      C2160   1.420       .  A
C2159      C2166   1.452       .  S
C2160      C2161   1.422       .  A
C2161      C2162   1.412       .  A
C2161      C2164   1.452       .  S
C2162      C2165   1.452       .  S
C2163      N2170   1.157       .  T
C2164      N2169   1.158       .  T
C2165      N2167   1.157       .  T
C2166      N2168   1.157       .  T
C2171      C2172   1.414       .  A
C2171      C2176   1.413       .  A
C2172      C2173   1.410       .  A
C2172      C2177   1.451       .  S
C2173      C2174   1.411       .  A
C2173      C2180   1.451       .  S
C2174      C2175   1.411       .  A
C2175      C2176   1.409       .  A
C2175      C2178   1.451       .  S
C2176      C2179   1.451       .  S
C2177      N2184   1.157       .  T
C2178      N2183   1.157   1_455  T
C2179      N2181   1.157   1_455  T
C2180      N2182   1.157       .  T
C2185      C2186   1.402       .  A
C2185      C2190   1.401       .  A
C2185      C3249   1.481       .  S
C2186      C2187   1.401       .  A
C2186      H2191   1.084       .  S
C2187      C2188   1.399       .  A
C2188      C2189   1.400       .  A
C2189      C2190   1.400       .  A
C2189      C3266   1.477       .  S
C2190      H2193   1.083       .  S
C2194      C2195   1.403       .  A
C2194      C2199   1.406       .  A
C2194      C3221   1.487       .  S
C2195      C2196   1.401       .  A
C2195      H2200   1.084       .  S
C2196      C2197   1.397       .  A
C2196      C3196   1.479       .  S
C2197      C2198   1.400       .  A
C2197      H2201   1.085       .  S
C2198      C2199   1.408       .  A
C2198      C3207   1.489       .  S
C2199      H2202   1.083       .  S
C2203      C3296   1.403       .  A
C2203      C2208   1.405       .  A
C2203      C3165   1.486       .  S
C2204      C3295   1.402   1_545  A
C2204      C2205   1.398       .  A
C2204      H2209   1.084       .  S
C2205      C2206   1.400       .  A
C2205      C3151   1.481       .  S
C2206      C3299   1.403       .  A
C2206      H2210   1.084       .  S
C2207      C3298   1.403       .  A
C2207      C2208   1.404       .  A
C2207      C3182   1.488       .  S
C2208      H2211   1.084       .  S
C2212      C3154   1.477       .  S
C2212      N2213   1.358       .  A
C2212      N2217   1.357       .  A
N2213      C2214   1.358       .  A
C2214      C3238   1.483       .  S
C2214      N2215   1.357       .  A
N2215      C2216   1.356       .  A
C2216      C3193   1.480       .  S
C2216      N2217   1.357       .  A
C2218      C3311   1.404   1_545  A
C2218      C2223   1.407       .  A
C2218      C3123   1.491       .  S
C2219      C3310   1.404       .  A
C2219      C2220   1.401       .  A
C2219      H2224   1.084       .  S
C2220      C2221   1.399       .  A
C2220      C3109   1.482       .  S
C2221      C3314   1.402       .  A
C2221      H2225   1.084       .  S
C2222      C3313   1.402   1_545  A
C2222      C2223   1.406       .  A
C2222      C3137   1.489       .  S
C2223      H2226   1.083       .  S
C2227      C2228   1.405       .  A
C2227      C2232   1.411       .  A
C2227      C3098   1.499       .  S
C2228      C2229   1.402       .  A
C2228      H2233   1.084       .  S
C2229      C2230   1.402       .  A
C2229      C3070   1.490       .  S
C2230      C2231   1.405       .  A
C2230      H2234   1.084       .  S
C2231      C2232   1.408       .  A
C2231      C3081   1.496       .  S
C2232      H2235   1.083       .  S
C2236      C3112   1.488       .  S
C2236      N2237   1.359       .  A
C2236      N2241   1.359       .  A
N2237      C2238   1.357       .  A
C2238      C3067   1.481       .  S
C2238      N2239   1.358       .  A
N2239      C2240   1.359       .  A
C2240      C3053   1.488       .  S
C2240      N2241   1.359       .  A
C2242      C2243   1.405       .  A
C2242      C2247   1.409       .  A
C2243      C2244   1.400       .  A
C2243      H2248   1.084       .  S
C2244      C2245   1.398       .  A
C2244      C3056   1.484       .  S
C2245      C2246   1.405       .  A
C2245      H2249   1.084       .  S
C2246      C2247   1.410       .  A
C2246      C3039   1.498       .  S
Zn2251     O2255   1.958   1_556  S
Zn2251     O2256   2.021       .  S
Zn2251     O2260   2.011       .  S
Zn2251     O3359   2.014   1_545  S
Zn2252     O2255   1.966       .  S
Zn2252     O2257   2.013       .  S
Zn2252     O2259   2.038   1_554  S
Zn2252     O2263   2.024       .  S
Zn2253     O2258   2.022   1_554  S
Zn2253     O3356   2.029   1_545  S
Zn2254     O3347   1.965       .  S
Zn2254     O2265   2.019       .  S
Zn2254     O2266   2.024   1_554  S
O2255     Zn3346   1.965   1_545  S
O2256      C2268   1.273       .  A
O2257      C2269   1.273       .  A
O2258      C2270   1.274       .  A
O2259      C2268   1.275       .  A
O2261      C2269   1.273       .  A
O2262      C2271   1.272       .  A
O2263      C3364   1.275   1_545  A
O2264     Zn3345   2.028       .  S
O2264      C2271   1.273       .  A
O2265      C2272   1.274       .  A
O2266      C2273   1.274       .  A
O2267     Zn3343   2.016       .  S
O2267      C2273   1.274       .  A
C2268      C3095   1.495       .  S
C2269      C3263   1.474       .  S
C2270      C3140   1.491       .  S
C2271      C3224   1.481       .  S
C2272      C3179   1.489       .  S
C2272      O3355   1.275       .  A
C2273      C3042   1.487       .  S
C2274      C2275   1.403       .  A
C2274      C2279   1.404       .  A
C2274      C2997   1.486       .  S
C2275      C2276   1.401       .  A
C2275      H2280   1.082       .  S
C2276      C2277   1.403       .  A
C2276      C2983   1.486       .  S
C2277      C2278   1.405       .  A
C2277      H2281   1.081       .  S
C2278      C2279   1.405       .  A
C2278      C3011   1.489       .  S
C2279      H2282   1.088       .  S
C2283      C2284   1.402       .  A
C2283      C2288   1.406   1_545  A
C2283      C2955   1.489       .  S
C2284      C2285   1.400   1_545  A
C2284      H2289   1.084       .  S
C2285      C3378   1.401       .  A
C2285      C2944   1.482       .  S
C2286      C3377   1.401       .  A
C2286      C2287   1.403       .  A
C2286      H2290   1.084       .  S
C2287      C3380   1.408       .  A
C2287      C2969   1.490       .  S
C2288      C3379   1.408       .  A
C2288      H2291   1.083       .  S
C2292      C2293   1.405       .  A
C2292      C2297   1.407       .  A
C2292      C2916   1.491       .  S
C2293      C2294   1.401       .  A
C2293      H2298   1.084       .  S
C2294      C2295   1.400       .  A
C2294      C2902   1.484       .  S
C2295      C2296   1.402       .  A
C2296      C2297   1.406       .  A
C2297      H2300   1.083       .  S
C2301      N2302   1.360       .  A
C2301      N3398   1.361       .  A
N2302      C3395   1.358       .  A
C2303      C2941   1.482       .  S
C2303      N3394   1.358   1_545  A
C2303      N2304   1.357       .  A
N2304      C2305   1.357       .  A
C2305      C2899   1.485       .  S
C2305      N2306   1.360       .  A
N2306      C3393   1.361   1_545  A
Zn2307     O2311   1.968       .  S
Zn2307     O2312   2.028       .  S
Zn2307     O2316   2.026       .  S
Zn2307     O2323   2.025       .  S
Zn2308     O2311   1.966       .  S
Zn2308     O2313   2.033       .  S
Zn2308     O2315   2.035       .  S
Zn2308     O2319   2.023       .  S
Zn2309     O2311   1.972       .  S
Zn2309     O2314   2.028       .  S
Zn2309     O2317   2.037       .  S
Zn2309     O2320   2.036       .  S
Zn2310     O2311   1.971       .  S
Zn2310     O2318   2.020       .  S
Zn2310     O2321   2.027       .  S
Zn2310     O2322   2.029       .  S
O2312      C2324   1.275       .  A
O2313      C2325   1.275       .  A
O2314      C2326   1.275       .  A
O2315      C2324   1.276       .  A
O2316      C2326   1.275       .  A
O2317      C2325   1.276       .  A
O2318      C2327   1.274       .  A
O2319      C2328   1.275       .  A
O2320      C2327   1.276       .  A
O2321      C2328   1.275       .  A
O2322      C2329   1.275       .  A
O2323      C2329   1.274       .  A
C2324      C3028   1.501       .  S
C2325      C3084   1.504       .  S
C2326      C3000   1.486       .  S
C2327      C2958   1.490       .  S
C2328      C3126   1.496       .  S
C2329      C2930   1.488       .  S
C2330      C2331   1.408       .  A
C2330      C2335   1.403       .  A
C2330      C2885   1.490       .  S
C2331      C2332   1.407       .  A
C2331      H2336   1.083       .  S
C2332      C2333   1.404       .  A
C2332      C2871   1.491       .  S
C2333      C2334   1.400       .  A
C2333      H2337   1.084       .  S
C2334      C2335   1.401       .  A
C2334      C2860   1.484       .  S
C2335      H2338   1.084       .  S
C2339      C2340   1.404       .  A
C2339      C2344   1.405       .  A
C2339      C2846   1.488       .  S
C2340      C2341   1.399       .  A
C2341      C2342   1.398       .  A
C2342      C2343   1.403       .  A
C2342      H2346   1.084       .  S
C2343      C2344   1.405       .  A
C2343      C2829   1.488       .  S
C2344      H2347   1.083       .  S
C2348      C3441   1.406       .  A
C2348      C2353   1.407       .  A
C2348      C2787   1.495       .  S
C2349      C3440   1.407   1_545  A
C2349      C2350   1.403       .  A
C2349      H2354   1.084       .  S
C2350      C2351   1.400       .  A
C2350      C2776   1.487       .  S
C2351      C3444   1.403       .  A
C2351      H2355   1.084       .  S
C2352      C3443   1.403       .  A
C2352      C2353   1.407       .  A
C2352      C2801   1.492       .  S
C2353      H2356   1.083       .  S
C2357      C2818   1.482       .  S
C2357      N2358   1.359       .  A
C2357      N2362   1.357       .  A
N2358      C2359   1.360       .  A
C2359      C2773   1.495       .  S
C2359      N2360   1.360       .  A
N2360      C2361   1.358       .  A
C2361      C2857   1.488       .  S
C2361      N2362   1.357       .  A
Zn2363     O2367   1.969       .  S
Zn2363     O2368   2.031       .  S
Zn2363     O2372   2.041       .  S
Zn2363     O2379   2.042       .  S
Zn2364     O2367   1.965       .  S
Zn2364     O2369   2.014       .  S
Zn2364     O2371   2.028       .  S
Zn2364     O2375   2.028       .  S
Zn2365     O2367   1.965       .  S
Zn2365     O2370   2.020       .  S
Zn2365     O2373   2.016       .  S
Zn2365     O2376   2.023       .  S
Zn2366     O2367   1.959       .  S
Zn2366     O2374   2.018       .  S
Zn2366     O2377   2.019       .  S
Zn2366     O2378   2.010       .  S
O2368      C2380   1.275       .  A
O2369      C2381   1.273       .  A
O2370      C2382   1.273       .  A
O2371      C2380   1.275       .  A
O2372      C2382   1.277       .  A
O2373      C2381   1.274       .  A
O2374      C2383   1.273       .  A
O2375      C2384   1.275       .  A
O2376      C2383   1.274       .  A
O2377      C2384   1.273       .  A
O2378      C2385   1.273       .  A
O2379      C2385   1.277       .  A
C2380      C2790   1.493       .  S
C2381      C2832   1.488       .  S
C2382      C2874   1.491       .  S
C2383      C2913   1.497       .  S
C2384      C2972   1.500       .  S
C2385      C3014   1.504       .  S
C2386      C2387   1.405       .  A
C2386      C2391   1.405       .  A
C2386      C2762   1.490       .  S
C2387      C2388   1.403       .  A
C2387      H2392   1.084       .  S
C2388      C2389   1.400       .  A
C2388      C2731   1.488       .  S
C2389      C2390   1.404       .  A
C2389      H2393   1.084       .  S
C2390      C2391   1.407       .  A
C2390      C2745   1.494       .  S
C2391      H2394   1.083       .  S
C2395      C2396   1.406       .  A
C2395      C2400   1.402       .  A
C2396      C2397   1.405       .  A
C2397      C2398   1.401       .  A
C2397      C2717   1.482       .  S
C2398      C2399   1.398       .  A
C2398      H2402   1.084       .  S
C2399      C2400   1.400       .  A
C2399      C2692   1.480       .  S
C2400      H2403   1.085       .  S
C2404      C2405   1.409       .  A
C2404      C3501   1.405   1_545  A
C2404      C2661   1.496       .  S
C2405      C2406   1.407   1_545  A
C2405      H2410   1.083       .  S
C2406      C3499   1.403       .  A
C2406      C2678   1.494       .  S
C2407      C3498   1.403       .  A
C2407      C2408   1.400       .  A
C2407      H2411   1.084       .  S
C2408      C2409   1.401       .  A
C2408      C2647   1.483       .  S
C2409      C3496   1.404       .  A
C2409      H2412   1.084       .  S
C2413      C2689   1.486       .  S
C2413      N2414   1.358       .  A
C2413      N2418   1.360       .  A
N2414      C2415   1.357       .  A
C2415      C2734   1.480       .  S
C2415      N2416   1.356       .  A
N2416      C2417   1.358       .  A
C2417      C2650   1.480       .  S
C2417      N2418   1.358       .  A
Zn2419     O3515   1.971       .  S
Zn2419     O2424   2.037       .  S
Zn2419     O2428   2.038       .  S
Zn2420     O2423   1.956   1_545  S
Zn2420     O2425   2.014       .  S
Zn2420     O3519   1.994   1_545  S
Zn2421     O2423   1.966   1_545  S
Zn2421     O2426   2.017       .  S
Zn2421     O2429   2.039       .  S
Zn2421     O2432   2.027       .  S
Zn2422     O2433   2.024       .  S
Zn2422     O3526   2.022       .  S
O2423     Zn3511   1.971       .  S
O2424      C2436   1.277       .  A
O2425      C2437   1.273       .  A
O2426      C2438   1.273   1_545  A
O2427     Zn3512   1.993       .  S
O2427      C2436   1.271       .  A
O2428      C3530   1.276       .  A
O2429      C2437   1.275       .  A
O2430      C2439   1.272       .  A
O2431      C2440   1.273   1_545  A
O2432      C2439   1.275       .  A
O2433      C2440   1.274       .  A
O2434     Zn3514   2.020       .  S
O2434      C2441   1.274       .  A
O2435      C2441   1.276       .  A
C2436      C2843   1.489       .  S
C2437      C2888   1.501       .  S
C2438      C2675   1.490       .  S
C2438      O3520   1.277       .  A
C2439      C2720   1.480       .  S
C2440      C2804   1.494   1_565  S
C2441      C2759   1.490       .  S
C2442      C2443   1.402       .  A
C2442      C2447   1.403   1_545  A
C2442      C2636   1.482       .  S
C2443      C2444   1.397   1_545  A
C2443      H2448   1.085       .  S
C2444      C3537   1.399       .  A
C2444      C2608   1.480       .  S
C2445      C3536   1.400       .  A
C2445      C2446   1.403       .  A
C2445      H2449   1.085       .  S
C2446      C3539   1.404       .  A
C2446      C2619   1.486       .  S
C2447      C3538   1.404       .  A
C2447      H2450   1.083       .  S
C2451      C2452   1.406       .  A
C2451      C2456   1.404       .  A
C2451      C2591   1.491       .  S
C2452      C2453   1.405       .  A
C2452      H2457   1.083       .  S
C2453      C2454   1.404       .  A
C2453      C2577   1.490       .  S
C2454      C2455   1.403       .  A
C2454      H2458   1.084       .  S
C2455      C2456   1.401       .  A
C2455      C2566   1.487       .  S
C2456      H2459   1.084       .  S
C2460      C2461   1.403       .  A
C2460      C2465   1.405       .  A
C2461      C2462   1.401       .  A
C2462      C2463   1.402       .  A
C2462      C2521   1.484       .  S
C2463      C2464   1.403       .  A
C2463      H2467   1.084       .  S
C2464      C2465   1.405       .  A
C2464      C2549   1.485       .  S
C2465      H2468   1.083       .  S
C2469      C2563   1.480       .  S
C2469      N3562   1.358   1_545  A
C2469      N2474   1.357       .  A
N2470      C3561   1.358       .  A
N2470      C2471   1.359       .  A
C2471      C2524   1.484       .  S
C2471      N2472   1.359       .  A
N2472      C3565   1.359       .  A
C2473      N3564   1.359       .  A
C2473      N2474   1.358   1_565  A
Zn2475     O2479   1.958       .  S
Zn2475     O2480   2.015       .  S
Zn2475     O2484   2.010       .  S
Zn2475     O2491   2.005       .  S
Zn2476     O2479   1.957       .  S
Zn2476     O2481   2.012       .  S
Zn2476     O2483   2.017       .  S
Zn2476     O2487   2.018       .  S
Zn2477     O2479   1.960       .  S
Zn2477     O2482   2.010       .  S
Zn2477     O2485   2.012       .  S
Zn2477     O2488   2.006       .  S
Zn2478     O2479   1.966       .  S
Zn2478     O2486   2.032       .  S
Zn2478     O2489   2.032       .  S
Zn2478     O2490   2.032       .  S
O2480      C2492   1.272       .  A
O2481      C2493   1.273       .  A
O2482      C2494   1.273       .  A
O2483      C2492   1.272       .  A
O2484      C2494   1.273       .  A
O2485      C2493   1.272       .  A
O2486      C2495   1.275       .  A
O2487      C2496   1.274       .  A
O2488      C2495   1.272       .  A
O2489      C2496   1.276       .  A
O2490      C2497   1.276       .  A
O2491      C2497   1.272       .  A
C2492      C2552   1.481       .  S
C2493      C3252   1.498       .  S
C2494      C3168   1.486       .  S
C2495      C3210   1.488       .  S
C2496      C2580   1.488       .  S
C2497      C2622   1.486       .  S
Zn2498     O2502   1.969       .  S
Zn2498     O2503   2.042       .  S
Zn2498     O2507   2.032       .  S
Zn2498     O2514   2.042       .  S
Zn2499     O2502   1.965       .  S
Zn2499     O2504   2.020       .  S
Zn2499     O2506   2.018       .  S
Zn2499     O2510   2.012       .  S
Zn2500     O2502   1.963       .  S
Zn2500     O2505   2.015       .  S
Zn2500     O2508   2.021       .  S
Zn2500     O2511   2.034       .  S
Zn2501     O2502   1.959       .  S
Zn2501     O2509   2.017       .  S
Zn2501     O2512   1.994       .  S
Zn2501     O2513   2.010       .  S
O2503      C2515   1.276       .  A
O2504      C2516   1.273       .  A
O2505      C2517   1.275       .  A
O2506      C2515   1.272       .  A
O2507      C2517   1.277       .  A
O2508      C2516   1.274       .  A
O2509      C2518   1.273       .  A
O2510      C2519   1.274       .  A
O2511      C2518   1.274       .  A
O2512      C2519   1.271       .  A
O2513      C2520   1.272       .  A
O2514      C2520   1.276       .  A
C2515      C2538   1.490       .  S
C2516      C2706   1.499       .  S
C2517      C2748   1.487       .  S
C2518      C2664   1.494       .  S
C2519      C2633   1.479       .  S
C2520      C2594   1.492       .  S
C2521      C2522   1.411       .  A
C2521      C2526   1.410       .  A
C2522      C2523   1.412       .  A
C2522      C2527   1.451       .  S
C2523      C2524   1.413       .  A
C2523      C2530   1.451       .  S
C2524      C2525   1.413       .  A
C2525      C2526   1.411       .  A
C2525      C2528   1.451       .  S
C2526      C2529   1.451       .  S
C2527      N2534   1.157       .  T
C2528      N2533   1.157       .  T
C2529      N2531   1.157       .  T
C2530      N2532   1.157       .  T
C2535      C2536   1.412       .  A
C2535      C2540   1.411       .  A
C2536      C2537   1.412       .  A
C2536      C2541   1.451       .  S
C2537      C2538   1.414       .  A
C2537      C2544   1.450       .  S
C2538      C2539   1.416       .  A
C2539      C2540   1.413       .  A
C2539      C2542   1.451       .  S
C2541      N2548   1.157       .  T
C2542      N2547   1.157       .  T
C2543      N2545   1.157       .  T
C2544      N2546   1.157       .  T
C2549      C2550   1.412       .  A
C2549      C2554   1.412       .  A
C2550      C2551   1.411       .  A
C2550      C2555   1.451       .  S
C2551      C2552   1.412       .  A
C2551      C2558   1.451       .  S
C2552      C2553   1.412       .  A
C2553      C2554   1.412       .  A
C2553      C2556   1.451       .  S
C2554      C2557   1.450       .  S
C2555      N2562   1.157       .  T
C2556      N2561   1.157       .  T
C2557      N2559   1.157       .  T
C2558      N2560   1.157       .  T
C2563      C2564   1.411       .  A
C2563      C2568   1.412       .  A
C2564      C2565   1.411       .  A
C2564      C2569   1.451       .  S
C2565      C2566   1.413       .  A
C2565      C2572   1.451       .  S
C2566      C2567   1.413       .  A
C2567      C2568   1.412       .  A
C2567      C2570   1.450       .  S
C2568      C2571   1.451       .  S
C2569      N2576   1.157       .  T
C2570      N2575   1.157       .  T
C2571      N2573   1.157       .  T
C2572      N2574   1.157       .  T
C2577      C2578   1.413       .  A
C2577      C2582   1.412       .  A
C2578      C2579   1.413       .  A
C2578      C2583   1.451       .  S
C2579      C2580   1.414       .  A
C2579      C2586   1.451       .  S
C2580      C2581   1.415       .  A
C2581      C2582   1.411       .  A
C2581      C2584   1.452       .  S
C2582      C2585   1.451       .  S
C2583      N2590   1.157       .  T
C2584      N2589   1.157       .  T
C2585      N2587   1.157       .  T
C2586      N2588   1.157       .  T
C2591      C2592   1.413       .  A
C2591      C2596   1.413       .  A
C2592      C2593   1.413       .  A
C2592      C2597   1.451       .  S
C2593      C2594   1.415       .  A
C2593      C2600   1.451       .  S
C2594      C2595   1.417       .  A
C2595      C2596   1.412       .  A
C2595      C2598   1.452       .  S
C2596      C2599   1.452       .  S
C2597      N2604   1.157       .  T
C2598      N2603   1.158       .  T
C2599      N2601   1.157       .  T
C2600      N2602   1.157       .  T
C2605      C3698   1.414       .  A
C2605      C2610   1.414   1_565  A
C2606      C3697   1.413       .  A
C2606      C2607   1.411       .  A
C2606      C2611   1.451       .  S
C2607      C3700   1.410       .  A
C2607      C2614   1.451       .  S
C2608      C3699   1.410       .  A
C2608      C2609   1.410   1_565  A
C2609      C2610   1.409       .  A
C2609      C2612   1.451       .  S
C2610      C2613   1.451       .  S
C2611      N2618   1.157       .  T
C2612      N2617   1.157       .  T
C2614      N2616   1.157       .  T
C2619      C2620   1.412       .  A
C2619      C2624   1.412       .  A
C2620      C2621   1.411       .  A
C2620      C2625   1.452       .  S
C2621      C2622   1.416       .  A
C2621      C2628   1.452       .  S
C2622      C2623   1.414       .  A
C2623      C2624   1.410       .  A
C2623      C2626   1.451       .  S
C2624      C2627   1.451       .  S
C2625      N3724   1.157       .  T
C2626      N2631   1.157       .  T
C2627      N2629   1.157       .  T
C2628      N2630   1.157       .  T
N2632      C3717   1.157   1_545  T
C2633      C2634   1.412       .  A
C2633      C2638   1.415       .  A
C2634      C2635   1.407       .  A
C2634      C2639   1.452       .  S
C2635      C2636   1.412       .  A
C2635      C2642   1.452       .  S
C2636      C2637   1.411       .  A
C2637      C2638   1.409       .  A
C2637      C2640   1.451       .  S
C2638      C2641   1.452       .  S
C2639      N2646   1.157       .  T
C2640      N3737   1.157   1_545  T
C2641      N2643   1.158       .  T
C2642      N2644   1.157       .  T
N2645      C3732   1.157       .  T
C2647      C2648   1.410       .  A
C2647      C2652   1.412       .  A
C2648      C2649   1.408       .  A
C2648      C2653   1.451       .  S
C2649      C2650   1.412       .  A
C2649      C2656   1.452       .  S
C2650      C2651   1.412       .  A
C2651      C2652   1.413       .  A
C2651      C2654   1.450       .  S
C2652      C2655   1.450       .  S
C2653      N2660   1.157       .  T
C2654      N2659   1.157       .  T
C2655      N2657   1.157       .  T
C2656      N2658   1.157       .  T
C2661      C2662   1.416       .  A
C2661      C2666   1.413       .  A
C2662      C2663   1.415       .  A
C2662      C2667   1.451       .  S
C2663      C2664   1.416       .  A
C2663      C2670   1.452       .  S
C2664      C2665   1.416       .  A
C2665      C2666   1.412       .  A
C2665      C2668   1.451       .  S
C2666      C2669   1.451       .  S
C2667      N2674   1.157       .  T
C2668      N2673   1.157       .  T
C2669      N3763   1.157       .  T
C2670      N2672   1.158       .  T
N2671      C3761   1.157       .  T
C2675      C3768   1.413       .  A
C2675      C2680   1.415   1_565  A
C2676      C3767   1.413       .  A
C2676      C2677   1.412       .  A
C2676      C2681   1.451       .  S
C2677      C3770   1.414       .  A
C2677      C2684   1.451       .  S
C2678      C3769   1.414       .  A
C2678      C2679   1.413   1_565  A
C2679      C2680   1.413       .  A
C2679      C2682   1.451       .  S
C2680      C2683   1.451       .  S
C2681      N2688   1.157       .  T
C2682      N2687   1.157       .  T
C2683      N2685   1.157       .  T
C2684      N2686   1.157       .  T
C2689      C2690   1.415       .  A
C2689      C2694   1.416       .  A
C2690      C2691   1.409       .  A
C2690      C2695   1.451       .  S
C2691      C2692   1.409       .  A
C2691      C2698   1.452       .  S
C2692      C2693   1.409       .  A
C2693      C2694   1.411       .  A
C2693      C2696   1.451       .  S
C2694      C2697   1.451       .  S
C2695      N2702   1.157       .  T
C2696      N2701   1.157       .  T
C2697      N2699   1.157       .  T
C2698      N2700   1.157       .  T
C2703      C2704   1.410       .  A
C2703      C2708   1.409       .  A
C2704      C2705   1.413       .  A
C2705      C2706   1.421       .  A
C2705      C2712   1.451       .  S
C2706      C2707   1.420       .  A
C2707      C2708   1.411       .  A
C2707      C2710   1.452       .  S
C2708      C2711   1.452       .  S
C2709      N2716   1.157       .  T
C2710      N2715   1.157       .  T
C2711      N2713   1.157       .  T
C2712      N2714   1.158       .  T
C2717      C2718   1.411       .  A
C2717      C2722   1.411       .  A
C2718      C2719   1.411       .  A
C2718      C2723   1.451       .  S
C2719      C2720   1.413       .  A
C2719      C2726   1.451       .  S
C2720      C2721   1.411       .  A
C2721      C2722   1.410       .  A
C2721      C2724   1.451       .  S
C2722      C2725   1.451       .  S
C2723      N2730   1.157       .  T
C2724      N2729   1.157       .  T
C2725      N2727   1.157       .  T
C2726      N2728   1.157       .  T
C2731      C2732   1.413       .  A
C2731      C2736   1.414       .  A
C2732      C2733   1.410       .  A
C2732      C2737   1.451       .  S
C2733      C2734   1.412       .  A
C2733      C2740   1.451       .  S
C2734      C2735   1.411       .  A
C2735      C2736   1.411       .  A
C2735      C2738   1.451       .  S
C2736      C2739   1.451       .  S
C2737      N2744   1.157       .  T
C2738      N2743   1.157       .  T
C2739      N2741   1.157       .  T
C2740      N2742   1.157       .  T
C2745      C2746   1.415       .  A
C2745      C2750   1.415       .  A
C2746      C2747   1.411       .  A
C2746      C2751   1.452       .  S
C2747      C2748   1.414       .  A
C2747      C2754   1.452       .  S
C2748      C2749   1.413       .  A
C2749      C2750   1.413       .  A
C2749      C2752   1.451       .  S
C2750      C2753   1.451       .  S
C2751      N2758   1.157       .  T
C2752      N2757   1.157       .  T
C2753      N2755   1.157       .  T
C2754      N2756   1.157       .  T
C2759      C2760   1.415       .  A
C2759      C2764   1.415       .  A
C2760      C2761   1.412       .  A
C2760      C2765   1.451       .  S
C2761      C2762   1.412       .  A
C2761      C2768   1.451       .  S
C2762      C2763   1.412       .  A
C2763      C2764   1.415       .  A
C2763      C2766   1.450       .  S
C2764      C2767   1.451       .  S
C2765      N2772   1.157       .  T
C2766      N2771   1.157       .  T
C2767      N2769   1.157       .  T
C2768      N2770   1.157       .  T
C2773      C2774   1.418       .  A
C2773      C2778   1.419       .  A
C2774      C2775   1.412       .  A
C2774      C2779   1.452       .  S
C2775      C2776   1.410       .  A
C2775      C2782   1.451       .  S
C2776      C2777   1.410       .  A
C2777      C2778   1.413       .  A
C2777      C2780   1.451       .  S
C2778      C2781   1.451       .  S
C2779      N2786   1.157       .  T
C2780      N2785   1.157       .  T
C2781      N2783   1.157       .  T
C2782      N2784   1.157       .  T
C2787      C2788   1.414       .  A
C2787      C2792   1.414       .  A
C2788      C2789   1.414       .  A
C2788      C2793   1.451       .  S
C2789      C2790   1.416       .  A
C2789      C2796   1.451       .  S
C2790      C2791   1.415       .  A
C2791      C2792   1.413       .  A
C2791      C2794   1.451       .  S
C2792      C2795   1.450       .  S
C2793      N2800   1.157       .  T
C2794      N2799   1.157       .  T
C2795      N2797   1.157       .  T
C2796      N2798   1.157       .  T
C2801      C3894   1.413       .  A
C2801      C2806   1.413       .  A
C2802      C3893   1.413       .  A
C2802      C2803   1.411       .  A
C2802      C2807   1.451       .  S
C2803      C2804   1.418       .  A
C2803      C2810   1.453       .  S
C2804      C3897   1.418   1_545  A
C2805      C3896   1.417       .  A
C2805      C2806   1.413       .  A
C2805      C2808   1.451       .  S
C2806      C2809   1.451       .  S
C2807      N2814   1.157       .  T
C2808      N2813   1.157       .  T
C2809      N2811   1.157       .  T
C2815      C2816   1.410       .  A
C2815      C2820   1.411       .  A
C2816      C2817   1.411       .  A
C2816      C2821   1.451       .  S
C2817      C2818   1.414       .  A
C2817      C2824   1.451       .  S
C2818      C2819   1.413       .  A
C2819      C2820   1.410       .  A
C2819      C2822   1.451       .  S
C2820      C2823   1.451       .  S
C2821      N2828   1.157       .  T
C2822      N2827   1.157       .  T
C2824      N2826   1.157       .  T
C2829      C2830   1.413       .  A
C2829      C2834   1.412       .  A
C2830      C2831   1.409       .  A
C2830      C2835   1.452       .  S
C2831      C2832   1.415       .  A
C2831      C2838   1.452       .  S
C2832      C2833   1.417       .  A
C2833      C2834   1.412       .  A
C2833      C2836   1.452       .  S
C2834      C2837   1.451       .  S
C2835      N2842   1.157       .  T
C2836      N2841   1.158       .  T
C2837      N2839   1.157       .  T
C2838      N2840   1.157       .  T
C2843      C2844   1.415       .  A
C2843      C2848   1.418       .  A
C2844      C2845   1.412       .  A
C2844      C2849   1.451       .  S
C2845      C2846   1.413       .  A
C2845      C2852   1.451       .  S
C2846      C2847   1.411       .  A
C2847      C2848   1.409       .  A
C2849      N2856   1.157       .  T
C2850      N2855   1.157       .  T
C2851      N2853   1.158       .  T
C2852      N2854   1.157       .  T
C2857      C2858   1.416       .  A
C2857      C2862   1.416       .  A
C2858      C2859   1.411       .  A
C2858      C2863   1.451       .  S
C2859      C2860   1.410       .  A
C2859      C2866   1.451       .  S
C2860      C2861   1.410       .  A
C2861      C2862   1.411       .  A
C2861      C2864   1.451       .  S
C2862      C2865   1.452       .  S
C2863      N2870   1.157       .  T
C2864      N2869   1.157       .  T
C2865      N2867   1.157       .  T
C2866      N2868   1.157       .  T
C2871      C2872   1.412       .  A
C2871      C2876   1.412       .  A
C2872      C2873   1.414       .  A
C2872      C2877   1.451       .  S
C2873      C2874   1.417       .  A
C2873      C2880   1.451       .  S
C2874      C2875   1.414       .  A
C2875      C2876   1.412       .  A
C2875      C2878   1.451       .  S
C2876      C2879   1.451       .  S
C2877      N2884   1.157       .  T
C2878      N2883   1.157       .  T
C2879      N2881   1.157       .  T
C2880      N2882   1.157       .  T
C2885      C2886   1.410       .  A
C2885      C2890   1.411       .  A
C2886      C2887   1.413       .  A
C2886      C2891   1.452       .  S
C2887      C2888   1.421       .  A
C2887      C2894   1.452       .  S
C2888      C2889   1.419       .  A
C2889      C2890   1.414       .  A
C2889      C2892   1.451       .  S
C2890      C2893   1.451       .  S
C2891      N2898   1.157       .  T
C2892      N2897   1.157       .  T
C2893      N2895   1.157       .  T
C2894      N2896   1.158       .  T
C2899      C2900   1.413       .  A
C2899      C2904   1.414       .  A
C2900      C2901   1.411       .  A
C2901      C2902   1.411       .  A
C2902      C2903   1.411       .  A
C2903      C2904   1.411       .  A
C2903      C2906   1.451       .  S
C2904      C2907   1.451       .  S
C2905      N2912   1.157   1_455  T
C2906      N2911   1.157       .  T
C2907      N2909   1.157       .  T
C2908      N2910   1.157   1_455  T
C2913      C2914   1.419       .  A
C2913      C2918   1.419       .  A
C2914      C2915   1.414       .  A
C2914      C2919   1.452       .  S
C2915      C2916   1.411       .  A
C2915      C2922   1.451       .  S
C2916      C2917   1.411       .  A
C2917      C2918   1.412       .  A
C2917      C2920   1.452       .  S
C2918      C2921   1.452       .  S
C2919      N2926   1.158       .  T
C2920      N2925   1.157       .  T
C2921      N2923   1.158       .  T
C2922      N2924   1.157       .  T
C2927      C2928   1.412       .  A
C2927      C2932   1.411   1_655  A
C2928      C2929   1.412       .  A
C2928      C2933   1.451       .  S
C2929      C2930   1.413       .  A
C2929      C2936   1.451       .  S
C2930      C2931   1.415       .  A
C2931      C2932   1.413   1_655  A
C2931      C2934   1.451       .  S
C2932      C2935   1.451       .  S
C2934      N2939   1.157       .  T
C2935      N2937   1.157       .  T
C2936      N2938   1.157       .  T
C2941      C2942   1.413   1_545  A
C2941      C4038   1.413       .  A
C2942      C2943   1.411       .  A
C2942      C2947   1.451       .  S
C2943      C2944   1.411       .  A
C2943      C2950   1.450       .  S
C2944      C4037   1.410   1_565  A
C2945      C4036   1.410       .  A
C2945      C2946   1.410       .  A
C2945      C2948   1.451       .  S
C2946      C4033   1.414       .  A
C2946      C2949   1.451       .  S
C2947      N2954   1.157       .  T
C2948      N2953   1.157       .  T
C2949      N2951   1.157       .  T
C2950      N2952   1.157       .  T
C2955      C2956   1.411       .  A
C2955      C2960   1.413       .  A
C2956      C2957   1.413       .  A
C2956      C2961   1.451       .  S
C2957      C2958   1.416       .  A
C2957      C2964   1.451       .  S
C2958      C2959   1.414       .  A
C2959      C2960   1.413       .  A
C2959      C2962   1.451       .  S
C2960      C2963   1.451       .  S
C2961      N2968   1.157   1_545  T
C2962      N2967   1.157       .  T
C2963      N2965   1.157       .  T
C2964      N2966   1.157       .  T
C2969      C2970   1.410       .  A
C2969      C2974   1.411       .  A
C2970      C2971   1.412       .  A
C2970      C2975   1.451       .  S
C2971      C2972   1.419       .  A
C2971      C2978   1.451       .  S
C2972      C2973   1.421       .  A
C2973      C2974   1.414       .  A
C2973      C2976   1.452       .  S
C2974      C2977   1.452       .  S
C2975      N4074   1.157       .  T
C2976      N2981   1.158       .  T
C2977      N2979   1.157       .  T
C2978      N2980   1.157       .  T
N2982      C4067   1.157   1_545  T
C2983      C2984   1.410       .  A
C2983      C2988   1.410       .  A
C2984      C2985   1.412       .  A
C2984      C2989   1.451       .  S
C2985      C2986   1.417       .  A
C2985      C2992   1.451   1_655  S
C2986      C2987   1.416       .  A
C2987      C2988   1.413       .  A
C2987      C2990   1.451       .  S
C2988      C2991   1.451       .  S
C2989      N2996   1.157       .  T
C2990      N2995   1.157       .  T
C2991      N2993   1.157       .  T
C2992      N2994   1.157       .  T
C2997      C2998   1.412       .  A
C2997      C3002   1.411       .  A
C2998      C2999   1.413       .  A
C2998      C3003   1.451       .  S
C2999      C3000   1.414       .  A
C2999      C3006   1.451       .  S
C3000      C3001   1.413       .  A
C3001      C3002   1.411       .  A
C3001      C3004   1.451       .  S
C3002      C3005   1.451       .  S
C3003      N3010   1.157       .  T
C3004      N3009   1.157       .  T
C3005      N3007   1.157       .  T
C3006      N3008   1.157       .  T
C3011      C3012   1.408       .  A
C3011      C3016   1.410       .  A
C3012      C3013   1.412       .  A
C3012      C3017   1.452       .  S
C3013      C3014   1.424       .  A
C3013      C3020   1.452       .  S
C3014      C3015   1.421       .  A
C3015      C3016   1.415       .  A
C3015      C3018   1.451       .  S
C3016      C3019   1.451       .  S
C3017      N3024   1.157       .  T
C3018      N3023   1.158       .  T
C3019      N3021   1.157       .  T
C3020      N3022   1.158       .  T
C3025      C3026   1.412       .  A
C3025      C3030   1.411       .  A
C3026      C3027   1.413       .  A
C3026      C3031   1.452       .  S
C3027      C3028   1.419       .  A
C3027      C3034   1.452       .  S
C3028      C3029   1.420       .  A
C3029      C3030   1.415       .  A
C3029      C3032   1.451       .  S
C3031      N3038   1.157       .  T
C3032      N3037   1.158       .  T
C3033      N3035   1.157       .  T
C3034      N3036   1.157       .  T
C3039      C3040   1.417       .  A
C3039      C3044   1.418       .  A
C3040      C3041   1.414       .  A
C3041      C3042   1.413       .  A
C3042      C3043   1.412       .  A
C3043      C3044   1.411       .  A
C3043      C3046   1.452       .  S
C3044      C3047   1.452       .  S
C3045      N3052   1.157       .  T
C3046      N3051   1.157       .  T
C3047      N3049   1.157       .  T
C3048      N3050   1.157       .  T
C3053      C3054   1.416       .  A
C3053      C3058   1.415       .  A
C3054      C3055   1.412       .  A
C3054      C3059   1.451       .  S
C3055      C3056   1.411       .  A
C3055      C3062   1.451       .  S
C3056      C3057   1.410       .  A
C3057      C3058   1.411       .  A
C3057      C3060   1.451       .  S
C3058      C3061   1.451       .  S
C3059      N3066   1.157       .  T
C3060      N3065   1.157       .  T
C3061      N3063   1.157       .  T
C3062      N3064   1.157       .  T
C3067      C3068   1.411       .  A
C3067      C3072   1.411       .  A
C3068      C3069   1.412       .  A
C3068      C3073   1.451       .  S
C3069      C3070   1.414       .  A
C3069      C3076   1.451       .  S
C3070      C3071   1.413       .  A
C3071      C3072   1.411       .  A
C3071      C3074   1.451       .  S
C3072      C3075   1.451       .  S
C3073      N3080   1.157       .  T
C3074      N3079   1.157       .  T
C3075      N3077   1.157       .  T
C3076      N3078   1.157       .  T
C3081      C3082   1.412       .  A
C3081      C3086   1.412       .  A
C3082      C3083   1.414       .  A
C3082      C3087   1.452       .  S
C3083      C3084   1.420       .  A
C3083      C3090   1.451       .  S
C3084      C3085   1.420       .  A
C3085      C3086   1.416       .  A
C3085      C3088   1.451       .  S
C3086      C3089   1.451       .  S
C3087      N3094   1.157       .  T
C3088      N3093   1.158       .  T
C3089      N3091   1.157       .  T
C3090      N3092   1.157       .  T
C3095      C3096   1.416       .  A
C3095      C3100   1.415       .  A
C3096      C3097   1.414       .  A
C3096      C3101   1.452       .  S
C3097      C3098   1.416       .  A
C3097      C3104   1.452       .  S
C3098      C3099   1.415       .  A
C3099      C3100   1.415       .  A
C3099      C3102   1.451       .  S
C3100      C3103   1.451       .  S
C3101      N3108   1.158       .  T
C3102      N3107   1.157       .  T
C3103      N3105   1.157       .  T
C3104      N3106   1.157       .  T
C3109      C3110   1.409       .  A
C3109      C3114   1.410       .  A
C3110      C3111   1.410       .  A
C3110      C3115   1.451       .  S
C3111      C3112   1.416       .  A
C3111      C3118   1.451       .  S
C3112      C3113   1.416       .  A
C3113      C3114   1.412       .  A
C3113      C3116   1.451       .  S
C3114      C3117   1.451       .  S
C3115      N3122   1.157       .  T
C3116      N3121   1.157       .  T
C3117      N3119   1.157       .  T
C3118      N3120   1.157       .  T
C3123      C3124   1.412       .  A
C3123      C3128   1.412       .  A
C3124      C3125   1.412       .  A
C3124      C3129   1.452       .  S
C3125      C3126   1.418       .  A
C3125      C3132   1.452       .  S
C3126      C3127   1.418       .  A
C3127      C3128   1.414       .  A
C3127      C3130   1.451       .  S
C3128      C3131   1.451       .  S
C3129      N3136   1.157       .  T
C3130      N3135   1.157       .  T
C3131      N4225   1.157       .  T
C3132      N3134   1.158       .  T
N3133      C4223   1.157       .  T
C3137      C3138   1.412       .  A
C3137      C3142   1.412   1_545  A
C3138      C4231   1.413       .  A
C3138      C4235   1.451       .  S
C3139      C4230   1.412       .  A
C3139      C4232   1.417       .  A
C3139      C3146   1.451       .  S
C3140      C4231   1.417       .  A
C3140      C3141   1.416   1_545  A
C3141      C3142   1.410       .  A
C3141      C3144   1.452       .  S
C3142      C3145   1.452       .  S
C3143      C4230   1.451       .  S
C3143      N3150   1.157       .  T
C3145      N3147   1.157       .  T
C3146      N3148   1.157       .  T
C3151      C3152   1.411       .  A
C3151      C3156   1.411       .  A
C3152      C3153   1.409       .  A
C3152      C3157   1.451       .  S
C3153      C3154   1.411       .  A
C3153      C3160   1.451       .  S
C3154      C3155   1.412       .  A
C3155      C3156   1.409       .  A
C3155      C3158   1.451       .  S
C3156      C3159   1.451       .  S
C3157      N3164   1.157       .  T
C3158      N3163   1.157       .  T
C3159      N3161   1.157       .  T
C3160      N3162   1.157       .  T
C3165      C3166   1.412       .  A
C3165      C3170   1.413       .  A
C3166      C3167   1.410       .  A
C3166      C3171   1.451       .  S
C3167      C3168   1.416       .  A
C3167      C3174   1.452       .  S
C3168      C3169   1.415       .  A
C3169      C3170   1.410       .  A
C3169      C3172   1.452       .  S
C3170      C3173   1.452       .  S
C3171      N3178   1.157       .  T
C3172      N3177   1.158       .  T
C3173      N3175   1.157       .  T
C3174      N3176   1.157       .  T
C3179      C3180   1.416       .  A
C3179      C4276   1.416       .  A
C3180      C3181   1.412       .  A
C3180      C3185   1.451       .  S
C3181      C3182   1.412       .  A
C3181      C3188   1.451       .  S
C3182      C4275   1.412       .  A
C3183      C4274   1.412   1_545  A
C3183      C3184   1.410       .  A
C3183      C3186   1.452       .  S
C3184      C4271   1.416   1_545  A
C3184      C3187   1.452       .  S
C3185      N3192   1.157       .  T
C3186      N3191   1.157       .  T
C3187      N3189   1.157       .  T
C3188      N3190   1.157       .  T
C3193      C3194   1.414       .  A
C3193      C3198   1.413       .  A
C3194      C3195   1.409       .  A
C3194      C3199   1.451       .  S
C3195      C3196   1.410       .  A
C3195      C3202   1.451       .  S
C3196      C3197   1.410       .  A
C3197      C3198   1.409       .  A
C3197      C3200   1.451       .  S
C3198      C3201   1.451       .  S
C3199      N3206   1.157       .  T
C3200      N3205   1.157       .  T
C3201      N3203   1.157       .  T
C3202      N3204   1.157       .  T
C3207      C3208   1.414       .  A
C3207      C3212   1.412       .  A
C3208      C3209   1.411       .  A
C3208      C3213   1.452       .  S
C3209      C3210   1.416       .  A
C3209      C3216   1.452       .  S
C3210      C3211   1.414       .  A
C3211      C3212   1.412       .  A
C3211      C3214   1.451       .  S
C3212      C3215   1.450       .  S
C3213      N3220   1.157       .  T
C3214      N3219   1.157       .  T
C3215      N3217   1.157       .  T
C3216      N3218   1.158       .  T
C3221      C3222   1.412       .  A
C3221      C3226   1.412       .  A
C3222      C3223   1.412       .  A
C3222      C3227   1.450       .  S
C3223      C3224   1.411       .  A
C3223      C3230   1.451       .  S
C3224      C3225   1.412       .  A
C3225      C3226   1.412       .  A
C3225      C3228   1.451       .  S
C3226      C3229   1.450       .  S
C3227      N3234   1.157       .  T
C3228      N3233   1.157   1_554  T
C3229      N3231   1.157       .  T
C3235      C3236   1.410       .  A
C3235      C3240   1.409       .  A
C3236      C3237   1.411       .  A
C3236      C3241   1.451       .  S
C3237      C3238   1.415       .  A
C3237      C3244   1.451       .  S
C3238      C3239   1.415       .  A
C3239      C3240   1.408       .  A
C3239      C3242   1.451       .  S
C3240      C3243   1.451       .  S
C3241      N3248   1.157       .  T
C3242      N3247   1.157       .  T
C3244      N3246   1.157       .  T
C3249      C3250   1.407       .  A
C3249      C3254   1.408       .  A
C3250      C3251   1.409       .  A
C3250      C3255   1.452       .  S
C3251      C3252   1.421       .  A
C3251      C3258   1.452       .  S
C3252      C3253   1.423       .  A
C3253      C3254   1.412       .  A
C3253      C3256   1.452       .  S
C3254      C3257   1.452       .  S
C3255      N3262   1.157       .  T
C3256      N3261   1.158       .  T
C3257      N3259   1.157       .  T
C3258      N3260   1.157       .  T
C3263      C3264   1.411       .  A
C3263      C3268   1.410       .  A
C3264      C3265   1.408       .  A
C3264      C3269   1.451       .  S
C3265      C3266   1.410       .  A
C3265      C3272   1.451       .  S
C3266      C3267   1.411       .  A
C3267      C3268   1.409       .  A
C3267      C3270   1.451       .  S
C3268      C3271   1.450       .  S
C3269      N3276   1.157   1_554  T
C3270      N3275   1.157       .  T
C3271      N3273   1.157       .  T
C3272      N3274   1.157       .  T
C3277      C3278   1.402       .  A
C3277      C3282   1.402       .  A
C3277      C4341   1.482       .  S
C3278      C3279   1.401       .  A
C3278      H3283   1.084       .  S
C3279      C3280   1.399       .  A
C3280      C3281   1.401       .  A
C3281      C3282   1.401       .  A
C3281      C4358   1.482       .  S
C3282      H3285   1.083       .  S
C3286      C3287   1.402       .  A
C3286      C3291   1.407       .  A
C3286      C4313   1.487       .  S
C3287      C3288   1.400       .  A
C3287      H3292   1.084       .  S
C3288      C3289   1.398       .  A
C3288      C4288   1.480       .  S
C3289      C3290   1.401       .  A
C3289      H3293   1.085       .  S
C3290      C3291   1.408       .  A
C3290      C4299   1.491       .  S
C3291      H3294   1.083       .  S
C3295      C3300   1.405       .  A
C3295      C4257   1.485       .  S
C3296      C3297   1.399       .  A
C3296      H3301   1.084       .  S
C3297      C3298   1.399       .  A
C3297      C4243   1.481       .  S
C3298      H3302   1.084       .  S
C3299      C3300   1.404   1_545  A
C3299      C4274   1.489   1_545  S
C3300      H3303   1.084       .  S
C3304      C4246   1.478       .  S
C3304      N3305   1.358       .  A
C3304      N3309   1.357       .  A
N3305      C3306   1.357       .  A
C3306      C4330   1.481       .  S
C3306      N3307   1.357       .  A
N3307      C3308   1.357       .  A
C3308      C4285   1.481       .  S
C3308      N3309   1.358       .  A
C3310      C3315   1.407       .  A
C3310      C4215   1.491       .  S
C3311      C3312   1.400       .  A
C3311      H3316   1.084       .  S
C3312      C3313   1.398       .  A
C3312      C4201   1.482       .  S
C3313      H3317   1.084       .  S
C3314      C3315   1.406       .  A
C3314      C4229   1.488       .  S
C3315      H3318   1.083       .  S
C3319      C3320   1.405       .  A
C3319      C3324   1.410       .  A
C3319      C4190   1.498       .  S
C3320      C3321   1.402       .  A
C3320      H3325   1.084       .  S
C3321      C3322   1.402       .  A
C3321      C4162   1.490       .  S
C3322      C3323   1.405       .  A
C3322      H3326   1.084       .  S
C3323      C3324   1.408       .  A
C3323      C4173   1.495       .  S
C3324      H3327   1.083       .  S
C3328      C4204   1.486       .  S
C3328      N3329   1.359       .  A
C3328      N3333   1.358       .  A
N3329      C3330   1.357       .  A
C3330      C4159   1.482       .  S
C3330      N3331   1.358       .  A
N3331      C3332   1.360       .  A
C3332      C4145   1.489       .  S
C3332      N3333   1.359       .  A
C3334      C3335   1.404       .  A
C3334      C3339   1.407       .  A
C3335      C3336   1.401       .  A
C3335      H3340   1.084       .  S
C3336      C3337   1.399       .  A
C3336      C4148   1.484       .  S
C3337      C3338   1.404       .  A
C3337      H3341   1.084       .  S
C3338      C3339   1.409       .  A
C3338      C4131   1.494       .  S
Zn3343     O3347   1.959   1_556  S
Zn3343     O3348   2.020       .  S
Zn3343     O3352   2.012       .  S
Zn3344     O3347   1.967       .  S
Zn3344     O3349   2.015       .  S
Zn3344     O3351   2.039   1_554  S
Zn3344     O3355   2.023       .  S
Zn3345     O3350   2.021   1_554  S
Zn3346     O3357   2.021       .  S
Zn3346     O3358   2.024   1_554  S
O3348      C3360   1.273       .  A
O3349      C3361   1.273       .  A
O3350      C3362   1.274       .  A
O3351      C3360   1.275       .  A
O3353      C3361   1.274       .  A
O3354      C3363   1.272       .  A
O3356      C3363   1.273       .  A
O3357      C3364   1.274       .  A
O3358      C3365   1.275       .  A
O3359      C3365   1.274       .  A
C3360      C4187   1.496       .  S
C3361      C4355   1.481       .  S
C3362      C4232   1.492       .  S
C3363      C4316   1.482       .  S
C3364      C4271   1.491       .  S
C3365      C4134   1.488       .  S
C3366      C3367   1.403       .  A
C3366      C3371   1.404       .  A
C3366      C4089   1.486       .  S
C3367      C3368   1.401       .  A
C3367      H3372   1.082       .  S
C3368      C3369   1.403       .  A
C3368      C4075   1.486       .  S
C3369      C3370   1.405       .  A
C3369      H3373   1.081       .  S
C3370      C3371   1.405       .  A
C3370      C4103   1.489       .  S
C3371      H3374   1.088       .  S
C3375      C3376   1.402       .  A
C3375      C3380   1.406       .  A
C3375      C4047   1.489       .  S
C3376      C3377   1.399       .  A
C3376      H3381   1.084       .  S
C3377      C4036   1.482       .  S
C3378      C3379   1.403       .  A
C3378      H3382   1.084       .  S
C3379      C4061   1.490       .  S
C3380      H3383   1.083       .  S
C3384      C3385   1.405       .  A
C3384      C3389   1.408       .  A
C3384      C4008   1.492       .  S
C3385      C3386   1.401       .  A
C3385      H3390   1.084       .  S
C3386      C3387   1.400       .  A
C3386      C3994   1.484       .  S
C3387      C3388   1.402       .  A
C3388      C3389   1.406       .  A
C3389      H3392   1.083       .  S
C3393      N3394   1.359       .  A
C3395      C4033   1.483       .  S
C3395      N3396   1.357       .  A
N3396      C3397   1.357       .  A
C3397      C3991   1.485       .  S
C3397      N3398   1.360       .  A
Zn3399     O3403   1.969       .  S
Zn3399     O3404   2.027       .  S
Zn3399     O3408   2.028       .  S
Zn3399     O3415   2.026       .  S
Zn3400     O3403   1.965       .  S
Zn3400     O3405   2.030       .  S
Zn3400     O3407   2.031       .  S
Zn3400     O3411   2.025       .  S
Zn3401     O3403   1.972       .  S
Zn3401     O3406   2.028       .  S
Zn3401     O3409   2.036       .  S
Zn3401     O3412   2.035       .  S
Zn3402     O3403   1.970       .  S
Zn3402     O3410   2.018       .  S
Zn3402     O3413   2.028       .  S
Zn3402     O3414   2.032       .  S
O3404      C3416   1.274       .  A
O3405      C3417   1.275       .  A
O3406      C3418   1.274       .  A
O3407      C3416   1.276       .  A
O3408      C3418   1.275       .  A
O3409      C3417   1.276       .  A
O3410      C3419   1.274       .  A
O3411      C3420   1.275       .  A
O3412      C3419   1.276       .  A
O3413      C3420   1.275       .  A
O3414      C3421   1.275       .  A
O3415      C3421   1.274       .  A
C3416      C4120   1.503       .  S
C3417      C4176   1.503       .  S
C3418      C4092   1.485       .  S
C3419      C4050   1.489       .  S
C3420      C4218   1.498       .  S
C3421      C4022   1.486       .  S
C3422      C3423   1.407       .  A
C3422      C3427   1.403       .  A
C3422      C3977   1.489       .  S
C3423      C3424   1.407       .  A
C3423      H3428   1.083       .  S
C3424      C3425   1.404       .  A
C3424      C3963   1.490       .  S
C3425      C3426   1.400       .  A
C3425      H3429   1.084       .  S
C3426      C3427   1.401       .  A
C3426      C3952   1.484       .  S
C3427      H3430   1.084       .  S
C3431      C3432   1.404       .  A
C3431      C3436   1.405       .  A
C3431      C3938   1.489       .  S
C3432      C3433   1.400       .  A
C3433      C3434   1.398       .  A
C3434      C3435   1.403       .  A
C3434      H3438   1.084       .  S
C3435      C3436   1.405       .  A
C3435      C3921   1.488       .  S
C3436      H3439   1.083       .  S
C3440      C3445   1.407       .  A
C3440      C3879   1.496       .  S
C3441      C3442   1.403       .  A
C3441      H3446   1.084       .  S
C3442      C3443   1.400       .  A
C3442      C3868   1.487       .  S
C3443      H3447   1.084       .  S
C3444      C3445   1.407   1_545  A
C3444      C3893   1.492       .  S
C3445      H3448   1.083       .  S
C3449      C3910   1.482       .  S
C3449      N3450   1.359       .  A
C3449      N3454   1.357       .  A
N3450      C3451   1.360       .  A
C3451      C3865   1.495       .  S
C3451      N3452   1.360       .  A
N3452      C3453   1.358       .  A
C3453      C3949   1.488       .  S
C3453      N3454   1.357       .  A
Zn3455     O3459   1.969       .  S
Zn3455     O3460   2.031       .  S
Zn3455     O3464   2.040       .  S
Zn3455     O3471   2.043       .  S
Zn3456     O3459   1.966       .  S
Zn3456     O3461   2.015       .  S
Zn3456     O3463   2.029       .  S
Zn3456     O3467   2.027       .  S
Zn3457     O3459   1.965       .  S
Zn3457     O3462   2.019       .  S
Zn3457     O3465   2.016       .  S
Zn3457     O3468   2.025       .  S
Zn3458     O3459   1.960       .  S
Zn3458     O3466   2.020       .  S
Zn3458     O3469   2.021       .  S
Zn3458     O3470   2.011       .  S
O3460      C3472   1.275       .  A
O3461      C3473   1.273       .  A
O3462      C3474   1.273       .  A
O3463      C3472   1.275       .  A
O3464      C3474   1.277       .  A
O3465      C3473   1.274       .  A
O3466      C3475   1.273       .  A
O3467      C3476   1.275       .  A
O3468      C3475   1.274       .  A
O3469      C3476   1.274       .  A
O3470      C3477   1.273       .  A
O3471      C3477   1.277       .  A
C3472      C3882   1.493       .  S
C3473      C3924   1.488       .  S
C3474      C3966   1.491       .  S
C3475      C4005   1.498       .  S
C3476      C4064   1.500       .  S
C3477      C4106   1.506       .  S
C3478      C3479   1.405       .  A
C3478      C3483   1.406       .  A
C3478      C3854   1.491       .  S
C3479      C3480   1.404       .  A
C3479      H3484   1.084       .  S
C3480      C3481   1.401       .  A
C3480      C3823   1.490       .  S
C3481      C3482   1.404       .  A
C3481      H3485   1.084       .  S
C3482      C3483   1.408       .  A
C3482      C3837   1.496       .  S
C3483      H3486   1.083       .  S
C3487      C3488   1.405       .  A
C3487      C3492   1.402       .  A
C3488      C3489   1.405       .  A
C3489      C3490   1.401       .  A
C3489      C3809   1.482       .  S
C3490      C3491   1.398       .  A
C3490      H3494   1.084       .  S
C3491      C3492   1.400       .  A
C3491      C3784   1.479       .  S
C3492      H3495   1.085       .  S
C3496      C3497   1.409       .  A
C3496      C3753   1.495       .  S
C3497      C3498   1.407       .  A
C3497      H3502   1.083       .  S
C3498      C3770   1.493       .  S
C3499      C3500   1.400       .  A
C3499      H3503   1.084       .  S
C3500      C3501   1.402       .  A
C3500      C3739   1.484       .  S
C3501      H3504   1.084       .  S
C3505      C3781   1.484       .  S
C3505      N3506   1.358       .  A
C3505      N3510   1.360       .  A
N3506      C3507   1.357       .  A
C3507      C3826   1.480       .  S
C3507      N3508   1.357       .  A
N3508      C3509   1.358       .  A
C3509      C3742   1.482       .  S
C3509      N3510   1.359       .  A
Zn3511     O3516   2.038       .  S
Zn3511     O3520   2.038       .  S
Zn3512     O3515   1.955       .  S
Zn3512     O3517   2.012       .  S
Zn3513     O3515   1.966       .  S
Zn3513     O3518   2.015       .  S
Zn3513     O3521   2.036       .  S
Zn3513     O3524   2.025       .  S
Zn3514     O3525   2.025       .  S
O3516      C3528   1.277       .  A
O3517      C3529   1.272       .  A
O3518      C3530   1.273       .  A
O3519      C3528   1.271       .  A
O3521      C3529   1.275       .  A
O3522      C3531   1.272       .  A
O3523      C3532   1.273       .  A
O3524      C3531   1.275       .  A
O3525      C3532   1.274       .  A
O3526      C3533   1.274       .  A
O3527      C3533   1.276       .  A
C3528      C3935   1.489       .  S
C3529      C3980   1.499       .  S
C3530      C3767   1.489       .  S
C3531      C3812   1.480       .  S
C3532      C3896   1.495       .  S
C3533      C3851   1.491       .  S
C3534      C3535   1.402       .  A
C3534      C3539   1.404       .  A
C3534      C3728   1.482       .  S
C3535      C3536   1.398       .  A
C3535      H3540   1.084       .  S
C3536      C3700   1.481       .  S
C3537      C3538   1.403       .  A
C3537      H3541   1.085       .  S
C3538      C3711   1.484       .  S
C3539      H3542   1.083       .  S
C3543      C3544   1.406       .  A
C3543      C3548   1.404       .  A
C3543      C3683   1.491       .  S
C3544      C3545   1.406       .  A
C3544      H3549   1.083       .  S
C3545      C3546   1.404       .  A
C3545      C3669   1.489       .  S
C3546      C3547   1.403       .  A
C3546      H3550   1.084       .  S
C3547      C3548   1.401       .  A
C3547      C3658   1.487       .  S
C3548      H3551   1.084       .  S
C3552      C3553   1.403       .  A
C3552      C3557   1.404       .  A
C3553      C3554   1.401       .  A
C3554      C3555   1.402       .  A
C3554      C3613   1.484       .  S
C3555      C3556   1.403       .  A
C3555      H3559   1.084       .  S
C3556      C3557   1.404       .  A
C3556      C3641   1.485       .  S
C3557      H3560   1.083       .  S
C3561      C3655   1.480       .  S
C3561      N3566   1.356       .  A
N3562      C3563   1.359       .  A
C3563      C3616   1.482       .  S
C3563      N3564   1.359       .  A
C3565      N3566   1.357       .  A
Zn3567     O3571   1.959       .  S
Zn3567     O3572   2.016       .  S
Zn3567     O3576   2.008       .  S
Zn3567     O3583   2.005       .  S
Zn3568     O3571   1.957       .  S
Zn3568     O3573   2.012       .  S
Zn3568     O3575   2.015       .  S
Zn3568     O3579   2.017       .  S
Zn3569     O3571   1.960       .  S
Zn3569     O3574   2.011       .  S
Zn3569     O3577   2.013       .  S
Zn3569     O3580   2.011       .  S
Zn3570     O3571   1.966       .  S
Zn3570     O3578   2.031       .  S
Zn3570     O3581   2.031       .  S
Zn3570     O3582   2.031       .  S
O3572      C3584   1.272       .  A
O3573      C3585   1.273       .  A
O3574      C3586   1.273       .  A
O3575      C3584   1.272       .  A
O3576      C3586   1.273       .  A
O3577      C3585   1.272       .  A
O3578      C3587   1.275       .  A
O3579      C3588   1.274       .  A
O3580      C3587   1.273       .  A
O3581      C3588   1.275       .  A
O3582      C3589   1.275       .  A
O3583      C3589   1.272       .  A
C3584      C3644   1.481       .  S
C3585      C4344   1.497       .  S
C3586      C4260   1.487       .  S
C3587      C4302   1.489       .  S
C3588      C3672   1.487       .  S
C3589      C3714   1.485       .  S
Zn3590     O3594   1.968       .  S
Zn3590     O3595   2.041       .  S
Zn3590     O3599   2.033       .  S
Zn3590     O3606   2.041       .  S
Zn3591     O3594   1.965       .  S
Zn3591     O3596   2.020       .  S
Zn3591     O3598   2.014       .  S
Zn3591     O3602   2.012       .  S
Zn3592     O3594   1.964       .  S
Zn3592     O3597   2.018       .  S
Zn3592     O3600   2.021       .  S
Zn3592     O3603   2.032       .  S
Zn3593     O3594   1.960       .  S
Zn3593     O3601   2.016       .  S
Zn3593     O3604   1.999       .  S
Zn3593     O3605   2.012       .  S
O3595      C3607   1.276       .  A
O3596      C3608   1.273       .  A
O3597      C3609   1.275       .  A
O3598      C3607   1.272       .  A
O3599      C3609   1.277       .  A
O3600      C3608   1.274       .  A
O3601      C3610   1.273       .  A
O3602      C3611   1.274       .  A
O3603      C3610   1.274       .  A
O3604      C3611   1.271       .  A
O3605      C3612   1.273       .  A
O3606      C3612   1.276       .  A
C3607      C3630   1.489       .  S
C3608      C3798   1.500       .  S
C3609      C3840   1.489       .  S
C3610      C3756   1.493       .  S
C3611      C3725   1.480       .  S
C3612      C3686   1.492       .  S
C3613      C3614   1.411       .  A
C3613      C3618   1.411       .  A
C3614      C3615   1.412       .  A
C3614      C3619   1.451       .  S
C3615      C3616   1.413       .  A
C3615      C3622   1.451       .  S
C3616      C3617   1.413       .  A
C3617      C3618   1.411       .  A
C3617      C3620   1.451       .  S
C3618      C3621   1.451       .  S
C3619      N3626   1.157       .  T
C3620      N3625   1.157       .  T
C3621      N3623   1.157       .  T
C3622      N3624   1.157       .  T
C3627      C3628   1.412       .  A
C3627      C3632   1.411       .  A
C3628      C3629   1.412       .  A
C3628      C3633   1.451       .  S
C3629      C3630   1.413       .  A
C3629      C3636   1.450       .  S
C3630      C3631   1.416       .  A
C3631      C3632   1.413       .  A
C3631      C3634   1.451       .  S
C3633      N3640   1.157       .  T
C3634      N3639   1.157       .  T
C3635      N3637   1.157       .  T
C3636      N3638   1.157       .  T
C3641      C3642   1.411       .  A
C3641      C3646   1.411       .  A
C3642      C3643   1.411       .  A
C3642      C3647   1.451       .  S
C3643      C3644   1.412       .  A
C3643      C3650   1.451       .  S
C3644      C3645   1.412       .  A
C3645      C3646   1.411       .  A
C3645      C3648   1.451       .  S
C3646      C3649   1.450       .  S
C3647      N3654   1.157       .  T
C3648      N3653   1.157       .  T
C3649      N3651   1.157       .  T
C3650      N3652   1.157       .  T
C3655      C3656   1.411       .  A
C3655      C3660   1.412       .  A
C3656      C3657   1.411       .  A
C3656      C3661   1.451       .  S
C3657      C3658   1.413       .  A
C3657      C3664   1.451       .  S
C3658      C3659   1.413       .  A
C3659      C3660   1.411       .  A
C3659      C3662   1.450       .  S
C3660      C3663   1.451       .  S
C3661      N3668   1.157       .  T
C3662      N3667   1.157       .  T
C3663      N3665   1.157       .  T
C3664      N3666   1.157       .  T
C3669      C3670   1.413       .  A
C3669      C3674   1.412       .  A
C3670      C3671   1.413       .  A
C3670      C3675   1.451       .  S
C3671      C3672   1.413       .  A
C3671      C3678   1.451       .  S
C3672      C3673   1.414       .  A
C3673      C3674   1.411       .  A
C3673      C3676   1.452       .  S
C3674      C3677   1.451       .  S
C3675      N3682   1.157       .  T
C3676      N3681   1.157       .  T
C3677      N3679   1.157       .  T
C3678      N3680   1.157       .  T
C3683      C3684   1.412       .  A
C3683      C3688   1.413       .  A
C3684      C3685   1.413       .  A
C3684      C3689   1.451       .  S
C3685      C3686   1.415       .  A
C3685      C3692   1.451       .  S
C3686      C3687   1.416       .  A
C3687      C3688   1.412       .  A
C3687      C3690   1.452       .  S
C3688      C3691   1.452       .  S
C3689      N3696   1.157       .  T
C3690      N3695   1.157       .  T
C3691      N3693   1.157       .  T
C3692      N3694   1.157       .  T
C3697      C3702   1.413       .  A
C3698      C3699   1.410       .  A
C3698      C3703   1.451       .  S
C3699      C3706   1.451       .  S
C3700      C3701   1.410       .  A
C3701      C3702   1.409       .  A
C3701      C3704   1.451       .  S
C3702      C3705   1.451       .  S
C3703      N3710   1.157       .  T
C3704      N3709   1.157       .  T
C3706      N3708   1.157       .  T
C3711      C3712   1.411       .  A
C3711      C3716   1.411       .  A
C3712      C3713   1.411       .  A
C3712      C3717   1.452       .  S
C3713      C3714   1.415       .  A
C3713      C3720   1.451       .  S
C3714      C3715   1.414       .  A
C3715      C3716   1.410       .  A
C3715      C3718   1.451       .  S
C3716      C3719   1.451       .  S
C3718      N3723   1.157       .  T
C3719      N3721   1.157       .  T
C3720      N3722   1.157       .  T
C3725      C3726   1.413       .  A
C3725      C3730   1.415       .  A
C3726      C3727   1.408       .  A
C3726      C3731   1.452       .  S
C3727      C3728   1.412       .  A
C3727      C3734   1.451       .  S
C3728      C3729   1.411       .  A
C3729      C3730   1.410       .  A
C3729      C3732   1.451       .  S
C3730      C3733   1.452       .  S
C3731      N3738   1.157       .  T
C3733      N3735   1.158       .  T
C3734      N3736   1.157       .  T
C3739      C3740   1.410       .  A
C3739      C3744   1.412       .  A
C3740      C3741   1.409       .  A
C3740      C3745   1.451       .  S
C3741      C3742   1.412       .  A
C3741      C3748   1.451       .  S
C3742      C3743   1.413       .  A
C3743      C3744   1.413       .  A
C3743      C3746   1.450       .  S
C3744      C3747   1.450       .  S
C3745      N3752   1.157       .  T
C3746      N3751   1.157       .  T
C3747      N3749   1.157       .  T
C3748      N3750   1.157       .  T
C3753      C3754   1.415       .  A
C3753      C3758   1.413       .  A
C3754      C3755   1.414       .  A
C3754      C3759   1.452       .  S
C3755      C3756   1.416       .  A
C3755      C3762   1.452       .  S
C3756      C3757   1.416       .  A
C3757      C3758   1.412       .  A
C3757      C3760   1.451       .  S
C3758      C3761   1.451       .  S
C3759      N3766   1.157       .  T
C3760      N3765   1.157       .  T
C3762      N3764   1.158       .  T
C3767      C3772   1.415       .  A
C3768      C3769   1.413       .  A
C3768      C3773   1.451       .  S
C3769      C3776   1.451       .  S
C3770      C3771   1.413       .  A
C3771      C3772   1.413       .  A
C3771      C3774   1.451       .  S
C3772      C3775   1.451       .  S
C3773      N3780   1.157       .  T
C3774      N3779   1.157       .  T
C3775      N3777   1.157       .  T
C3776      N3778   1.157       .  T
C3781      C3782   1.414       .  A
C3781      C3786   1.415       .  A
C3782      C3783   1.409       .  A
C3782      C3787   1.451       .  S
C3783      C3784   1.409       .  A
C3783      C3790   1.452       .  S
C3784      C3785   1.409       .  A
C3785      C3786   1.411       .  A
C3785      C3788   1.451       .  S
C3786      C3789   1.451       .  S
C3787      N3794   1.157       .  T
C3788      N3793   1.157       .  T
C3789      N3791   1.157       .  T
C3790      N3792   1.157       .  T
C3795      C3796   1.409       .  A
C3795      C3800   1.408       .  A
C3796      C3797   1.414       .  A
C3797      C3798   1.422       .  A
C3797      C3804   1.451       .  S
C3798      C3799   1.421       .  A
C3799      C3800   1.411       .  A
C3799      C3802   1.452       .  S
C3800      C3803   1.452       .  S
C3801      N3808   1.157       .  T
C3802      N3807   1.157       .  T
C3803      N3805   1.157       .  T
C3804      N3806   1.158       .  T
C3809      C3810   1.411       .  A
C3809      C3814   1.411       .  A
C3810      C3811   1.411       .  A
C3810      C3815   1.451       .  S
C3811      C3812   1.413       .  A
C3811      C3818   1.451       .  S
C3812      C3813   1.412       .  A
C3813      C3814   1.410       .  A
C3813      C3816   1.451       .  S
C3814      C3817   1.451       .  S
C3815      N3822   1.157       .  T
C3816      N3821   1.157       .  T
C3817      N3819   1.157       .  T
C3818      N3820   1.157       .  T
C3823      C3824   1.414       .  A
C3823      C3828   1.414       .  A
C3824      C3825   1.411       .  A
C3824      C3829   1.451       .  S
C3825      C3826   1.411       .  A
C3825      C3832   1.451       .  S
C3826      C3827   1.411       .  A
C3827      C3828   1.412       .  A
C3827      C3830   1.451       .  S
C3828      C3831   1.451       .  S
C3829      N3836   1.157       .  T
C3830      N3835   1.157       .  T
C3831      N3833   1.157       .  T
C3832      N3834   1.157       .  T
C3837      C3838   1.416       .  A
C3837      C3842   1.416       .  A
C3838      C3839   1.411       .  A
C3838      C3843   1.452       .  S
C3839      C3840   1.414       .  A
C3839      C3846   1.452       .  S
C3840      C3841   1.414       .  A
C3841      C3842   1.414       .  A
C3841      C3844   1.451       .  S
C3842      C3845   1.451       .  S
C3843      N3850   1.157       .  T
C3844      N3849   1.157       .  T
C3845      N3847   1.157       .  T
C3846      N3848   1.157       .  T
C3851      C3852   1.415       .  A
C3851      C3856   1.415       .  A
C3852      C3853   1.412       .  A
C3852      C3857   1.451       .  S
C3853      C3854   1.412       .  A
C3853      C3860   1.451       .  S
C3854      C3855   1.413       .  A
C3855      C3856   1.415       .  A
C3855      C3858   1.450       .  S
C3856      C3859   1.450       .  S
C3857      N3864   1.157       .  T
C3858      N3863   1.157       .  T
C3859      N3861   1.157       .  T
C3860      N3862   1.157       .  T
C3865      C3866   1.418       .  A
C3865      C3870   1.419       .  A
C3866      C3867   1.412       .  A
C3866      C3871   1.452       .  S
C3867      C3868   1.410       .  A
C3867      C3874   1.451       .  S
C3868      C3869   1.410       .  A
C3869      C3870   1.413       .  A
C3869      C3872   1.451       .  S
C3870      C3873   1.451       .  S
C3871      N3878   1.157       .  T
C3872      N3877   1.157       .  T
C3873      N3875   1.157       .  T
C3874      N3876   1.157       .  T
C3879      C3880   1.414       .  A
C3879      C3884   1.414       .  A
C3880      C3881   1.414       .  A
C3880      C3885   1.451       .  S
C3881      C3882   1.416       .  A
C3881      C3888   1.451       .  S
C3882      C3883   1.415       .  A
C3883      C3884   1.413       .  A
C3883      C3886   1.451       .  S
C3884      C3887   1.450       .  S
C3885      N3892   1.157       .  T
C3886      N3891   1.157       .  T
C3887      N3889   1.157       .  T
C3888      N3890   1.157       .  T
C3893      C3898   1.413   1_545  A
C3894      C3895   1.411       .  A
C3894      C3899   1.451       .  S
C3895      C3896   1.418       .  A
C3895      C3902   1.453       .  S
C3897      C3898   1.413       .  A
C3897      C3900   1.451       .  S
C3898      C3901   1.451       .  S
C3899      N3906   1.157       .  T
C3900      N3905   1.157       .  T
C3901      N3903   1.157       .  T
C3907      C3908   1.410       .  A
C3907      C3912   1.411       .  A
C3908      C3909   1.411       .  A
C3908      C3913   1.451       .  S
C3909      C3910   1.414       .  A
C3909      C3916   1.451       .  S
C3910      C3911   1.413       .  A
C3911      C3912   1.410       .  A
C3911      C3914   1.451       .  S
C3912      C3915   1.451       .  S
C3913      N3920   1.157       .  T
C3914      N3919   1.157       .  T
C3916      N3918   1.157       .  T
C3921      C3922   1.413       .  A
C3921      C3926   1.412       .  A
C3922      C3923   1.409       .  A
C3922      C3927   1.452       .  S
C3923      C3924   1.415       .  A
C3923      C3930   1.452       .  S
C3924      C3925   1.417       .  A
C3925      C3926   1.412       .  A
C3925      C3928   1.452       .  S
C3926      C3929   1.451       .  S
C3927      N3934   1.157       .  T
C3928      N3933   1.157       .  T
C3929      N3931   1.157       .  T
C3930      N3932   1.157       .  T
C3935      C3936   1.415       .  A
C3935      C3940   1.418       .  A
C3936      C3937   1.412       .  A
C3936      C3941   1.451       .  S
C3937      C3938   1.413       .  A
C3937      C3944   1.451       .  S
C3938      C3939   1.412       .  A
C3939      C3940   1.410       .  A
C3941      N3948   1.157       .  T
C3942      N3947   1.157       .  T
C3943      N3945   1.158       .  T
C3944      N3946   1.157       .  T
C3949      C3950   1.416       .  A
C3949      C3954   1.417       .  A
C3950      C3951   1.411       .  A
C3950      C3955   1.451       .  S
C3951      C3952   1.410       .  A
C3951      C3958   1.451       .  S
C3952      C3953   1.410       .  A
C3953      C3954   1.411       .  A
C3953      C3956   1.451       .  S
C3954      C3957   1.452       .  S
C3955      N3962   1.157       .  T
C3956      N3961   1.157       .  T
C3957      N3959   1.157       .  T
C3958      N3960   1.157       .  T
C3963      C3964   1.412       .  A
C3963      C3968   1.412       .  A
C3964      C3965   1.414       .  A
C3964      C3969   1.451       .  S
C3965      C3966   1.417       .  A
C3965      C3972   1.451       .  S
C3966      C3967   1.414       .  A
C3967      C3968   1.412       .  A
C3967      C3970   1.451       .  S
C3968      C3971   1.451       .  S
C3969      N3976   1.157       .  T
C3970      N3975   1.157       .  T
C3971      N3973   1.157       .  T
C3972      N3974   1.157       .  T
C3977      C3978   1.410       .  A
C3977      C3982   1.411       .  A
C3978      C3979   1.413       .  A
C3978      C3983   1.452       .  S
C3979      C3980   1.421       .  A
C3979      C3986   1.452       .  S
C3980      C3981   1.419       .  A
C3981      C3982   1.413       .  A
C3981      C3984   1.451       .  S
C3982      C3985   1.451       .  S
C3983      N3990   1.157       .  T
C3984      N3989   1.157       .  T
C3985      N3987   1.157       .  T
C3986      N3988   1.158       .  T
C3991      C3992   1.413       .  A
C3991      C3996   1.414       .  A
C3992      C3993   1.411       .  A
C3993      C3994   1.411       .  A
C3994      C3995   1.411       .  A
C3995      C3996   1.411       .  A
C3995      C3998   1.451       .  S
C3996      C3999   1.451       .  S
C3997      N4004   1.157   1_455  T
C3998      N4003   1.157       .  T
C3999      N4001   1.157       .  T
C4000      N4002   1.157   1_455  T
C4005      C4006   1.419       .  A
C4005      C4010   1.419       .  A
C4006      C4007   1.414       .  A
C4006      C4011   1.452       .  S
C4007      C4008   1.412       .  A
C4007      C4014   1.451       .  S
C4008      C4009   1.412       .  A
C4009      C4010   1.412       .  A
C4009      C4012   1.452       .  S
C4010      C4013   1.452       .  S
C4011      N4018   1.158       .  T
C4012      N4017   1.157       .  T
C4013      N4015   1.158       .  T
C4014      N4016   1.157       .  T
C4019      C4020   1.412       .  A
C4019      C4024   1.411   1_655  A
C4020      C4021   1.412       .  A
C4020      C4025   1.451       .  S
C4021      C4022   1.413       .  A
C4021      C4028   1.451       .  S
C4022      C4023   1.414       .  A
C4023      C4024   1.413   1_655  A
C4023      C4026   1.451       .  S
C4024      C4027   1.450       .  S
C4026      N4031   1.157       .  T
C4027      N4029   1.157       .  T
C4028      N4030   1.157       .  T
C4033      C4034   1.413       .  A
C4034      C4035   1.411       .  A
C4034      C4039   1.451       .  S
C4035      C4036   1.411       .  A
C4035      C4042   1.450       .  S
C4037      C4038   1.410       .  A
C4037      C4040   1.451       .  S
C4038      C4041   1.451       .  S
C4039      N4046   1.157       .  T
C4040      N4045   1.157       .  T
C4041      N4043   1.157       .  T
C4042      N4044   1.157       .  T
C4047      C4048   1.411       .  A
C4047      C4052   1.413       .  A
C4048      C4049   1.412       .  A
C4048      C4053   1.451       .  S
C4049      C4050   1.416       .  A
C4049      C4056   1.451       .  S
C4050      C4051   1.414       .  A
C4051      C4052   1.413       .  A
C4051      C4054   1.451       .  S
C4052      C4055   1.451       .  S
C4053      N4060   1.157       .  T
C4054      N4059   1.157       .  T
C4055      N4057   1.157       .  T
C4056      N4058   1.157       .  T
C4061      C4062   1.410       .  A
C4061      C4066   1.411       .  A
C4062      C4063   1.412       .  A
C4062      C4067   1.451       .  S
C4063      C4064   1.419       .  A
C4063      C4070   1.451       .  S
C4064      C4065   1.421       .  A
C4065      C4066   1.414       .  A
C4065      C4068   1.452       .  S
C4066      C4069   1.452       .  S
C4068      N4073   1.158       .  T
C4069      N4071   1.157       .  T
C4070      N4072   1.157       .  T
C4075      C4076   1.410       .  A
C4075      C4080   1.410       .  A
C4076      C4077   1.412       .  A
C4076      C4081   1.451       .  S
C4077      C4078   1.417       .  A
C4077      C4084   1.451       .  S
C4078      C4079   1.416       .  A
C4079      C4080   1.413       .  A
C4079      C4082   1.451       .  S
C4080      C4083   1.451       .  S
C4081      N4088   1.157       .  T
C4082      N4087   1.157       .  T
C4083      N4085   1.157       .  T
C4084      N4086   1.157   1_655  T
C4089      C4090   1.412       .  A
C4089      C4094   1.411       .  A
C4090      C4091   1.413       .  A
C4090      C4095   1.451       .  S
C4091      C4092   1.414       .  A
C4091      C4098   1.451       .  S
C4092      C4093   1.413       .  A
C4093      C4094   1.411       .  A
C4093      C4096   1.451       .  S
C4094      C4097   1.451       .  S
C4095      N4102   1.157       .  T
C4096      N4101   1.157       .  T
C4097      N4099   1.157       .  T
C4098      N4100   1.157       .  T
C4103      C4104   1.408       .  A
C4103      C4108   1.410       .  A
C4104      C4105   1.412       .  A
C4104      C4109   1.452       .  S
C4105      C4106   1.424       .  A
C4105      C4112   1.452       .  S
C4106      C4107   1.422       .  A
C4107      C4108   1.416       .  A
C4107      C4110   1.451       .  S
C4108      C4111   1.451       .  S
C4109      N4116   1.157       .  T
C4110      N4115   1.158       .  T
C4111      N4113   1.157       .  T
C4112      N4114   1.158       .  T
C4117      C4118   1.410       .  A
C4117      C4122   1.410       .  A
C4118      C4119   1.413       .  A
C4118      C4123   1.452       .  S
C4119      C4120   1.420       .  A
C4119      C4126   1.452       .  S
C4120      C4121   1.422       .  A
C4121      C4122   1.415       .  A
C4121      C4124   1.451       .  S
C4123      N4130   1.157       .  T
C4124      N4129   1.158       .  T
C4125      N4127   1.157       .  T
C4126      N4128   1.157       .  T
C4131      C4132   1.415       .  A
C4131      C4136   1.415       .  A
C4132      C4133   1.414       .  A
C4133      C4134   1.415       .  A
C4134      C4135   1.414       .  A
C4135      C4136   1.410       .  A
C4135      C4138   1.452       .  S
C4136      C4139   1.451       .  S
C4137      N4144   1.157       .  T
C4138      N4143   1.157       .  T
C4139      N4141   1.157       .  T
C4140      N4142   1.158       .  T
C4145      C4146   1.417       .  A
C4145      C4150   1.415       .  A
C4146      C4147   1.412       .  A
C4146      C4151   1.451       .  S
C4147      C4148   1.410       .  A
C4147      C4154   1.451       .  S
C4148      C4149   1.410       .  A
C4149      C4150   1.411       .  A
C4149      C4152   1.451       .  S
C4150      C4153   1.451       .  S
C4151      N4158   1.157       .  T
C4152      N4157   1.157       .  T
C4153      N4155   1.157       .  T
C4154      N4156   1.157       .  T
C4159      C4160   1.411       .  A
C4159      C4164   1.412       .  A
C4160      C4161   1.412       .  A
C4160      C4165   1.451       .  S
C4161      C4162   1.414       .  A
C4161      C4168   1.451       .  S
C4162      C4163   1.413       .  A
C4163      C4164   1.412       .  A
C4163      C4166   1.451       .  S
C4164      C4167   1.451       .  S
C4165      N4172   1.157       .  T
C4166      N4171   1.157       .  T
C4167      N4169   1.157       .  T
C4168      N4170   1.157       .  T
C4173      C4174   1.412       .  A
C4173      C4178   1.412       .  A
C4174      C4175   1.413       .  A
C4174      C4179   1.452       .  S
C4175      C4176   1.420       .  A
C4175      C4182   1.451       .  S
C4176      C4177   1.420       .  A
C4177      C4178   1.416       .  A
C4177      C4180   1.451       .  S
C4178      C4181   1.451       .  S
C4179      N4186   1.157       .  T
C4180      N4185   1.158       .  T
C4181      N4183   1.157       .  T
C4182      N4184   1.157       .  T
C4187      C4188   1.417       .  A
C4187      C4192   1.415       .  A
C4188      C4189   1.414       .  A
C4188      C4193   1.452       .  S
C4189      C4190   1.415       .  A
C4189      C4196   1.452       .  S
C4190      C4191   1.414       .  A
C4191      C4192   1.415       .  A
C4191      C4194   1.451       .  S
C4192      C4195   1.451       .  S
C4193      N4200   1.158       .  T
C4194      N4199   1.157       .  T
C4195      N4197   1.157       .  T
C4196      N4198   1.157       .  T
C4201      C4202   1.409       .  A
C4201      C4206   1.410       .  A
C4202      C4203   1.410       .  A
C4202      C4207   1.451       .  S
C4203      C4204   1.416       .  A
C4203      C4210   1.451       .  S
C4204      C4205   1.415       .  A
C4205      C4206   1.411       .  A
C4205      C4208   1.451       .  S
C4206      C4209   1.451       .  S
C4207      N4214   1.157       .  T
C4208      N4213   1.157       .  T
C4209      N4211   1.157       .  T
C4210      N4212   1.157       .  T
C4215      C4216   1.411       .  A
C4215      C4220   1.411       .  A
C4216      C4217   1.412       .  A
C4216      C4221   1.452       .  S
C4217      C4218   1.419       .  A
C4217      C4224   1.452       .  S
C4218      C4219   1.419       .  A
C4219      C4220   1.414       .  A
C4219      C4222   1.451       .  S
C4220      C4223   1.451       .  S
C4221      N4228   1.157       .  T
C4222      N4227   1.157       .  T
C4224      N4226   1.158       .  T
C4229      C4230   1.411       .  A
C4229      C4234   1.412       .  A
C4231      C4238   1.451       .  S
C4232      C4233   1.417       .  A
C4233      C4234   1.411       .  A
C4233      C4236   1.452       .  S
C4234      C4237   1.452       .  S
C4235      N4242   1.157       .  T
C4237      N4239   1.157       .  T
C4238      N4240   1.158       .  T
C4243      C4244   1.411       .  A
C4243      C4248   1.411       .  A
C4244      C4245   1.409       .  A
C4244      C4249   1.451       .  S
C4245      C4246   1.412       .  A
C4245      C4252   1.451       .  S
C4246      C4247   1.412       .  A
C4247      C4248   1.410       .  A
C4247      C4250   1.451       .  S
C4248      C4251   1.451       .  S
C4249      N4256   1.157       .  T
C4250      N4255   1.157       .  T
C4251      N4253   1.157       .  T
C4252      N4254   1.157       .  T
C4257      C4258   1.411       .  A
C4257      C4262   1.413       .  A
C4258      C4259   1.411       .  A
C4258      C4263   1.451       .  S
C4259      C4260   1.416       .  A
C4259      C4266   1.452       .  S
C4260      C4261   1.416       .  A
C4261      C4262   1.409       .  A
C4261      C4264   1.452       .  S
C4262      C4265   1.452       .  S
C4263      N4270   1.157       .  T
C4264      N4269   1.157       .  T
C4265      N4267   1.157       .  T
C4266      N4268   1.158       .  T
C4271      C4272   1.417       .  A
C4272      C4273   1.413       .  A
C4272      C4277   1.451       .  S
C4273      C4274   1.413       .  A
C4273      C4280   1.451       .  S
C4275      C4276   1.410       .  A
C4275      C4278   1.452       .  S
C4276      C4279   1.452       .  S
C4277      N4284   1.157       .  T
C4278      N4283   1.157       .  T
C4279      N4281   1.157       .  T
C4280      N4282   1.157       .  T
C4285      C4286   1.414       .  A
C4285      C4290   1.414       .  A
C4286      C4287   1.409       .  A
C4286      C4291   1.451       .  S
C4287      C4288   1.410       .  A
C4287      C4294   1.451       .  S
C4288      C4289   1.410       .  A
C4289      C4290   1.410       .  A
C4289      C4292   1.451       .  S
C4290      C4293   1.451       .  S
C4291      N4298   1.157       .  T
C4292      N4297   1.157       .  T
C4293      N4295   1.157       .  T
C4294      N4296   1.157       .  T
C4299      C4300   1.415       .  A
C4299      C4304   1.413       .  A
C4300      C4301   1.412       .  A
C4300      C4305   1.452       .  S
C4301      C4302   1.415       .  A
C4301      C4308   1.452       .  S
C4302      C4303   1.414       .  A
C4303      C4304   1.412       .  A
C4303      C4306   1.451       .  S
C4304      C4307   1.450       .  S
C4305      N4312   1.157       .  T
C4306      N4311   1.157       .  T
C4307      N4309   1.157       .  T
C4308      N4310   1.158       .  T
C4313      C4314   1.412       .  A
C4313      C4318   1.412       .  A
C4314      C4315   1.412       .  A
C4314      C4319   1.450       .  S
C4315      C4316   1.411       .  A
C4315      C4322   1.451       .  S
C4316      C4317   1.412       .  A
C4317      C4318   1.413       .  A
C4317      C4320   1.451       .  S
C4318      C4321   1.450       .  S
C4319      N4326   1.157       .  T
C4320      N4325   1.157   1_554  T
C4321      N4323   1.157       .  T
C4327      C4328   1.411       .  A
C4327      C4332   1.409       .  A
C4328      C4329   1.411       .  A
C4328      C4333   1.451       .  S
C4329      C4330   1.414       .  A
C4329      C4336   1.451       .  S
C4330      C4331   1.413       .  A
C4331      C4332   1.409       .  A
C4331      C4334   1.451       .  S
C4332      C4335   1.451       .  S
C4333      N4340   1.157       .  T
C4334      N4339   1.157       .  T
C4336      N4338   1.157       .  T
C4341      C4342   1.408       .  A
C4341      C4346   1.408       .  A
C4342      C4343   1.409       .  A
C4342      C4347   1.452       .  S
C4343      C4344   1.420       .  A
C4343      C4350   1.452       .  S
C4344      C4345   1.422       .  A
C4345      C4346   1.412       .  A
C4345      C4348   1.452       .  S
C4346      C4349   1.452       .  S
C4347      N4354   1.157       .  T
C4348      N4353   1.158       .  T
C4349      N4351   1.157       .  T
C4350      N4352   1.157       .  T
C4355      C4356   1.414       .  A
C4355      C4360   1.413       .  A
C4356      C4357   1.410       .  A
C4356      C4361   1.451       .  S
C4357      C4358   1.411       .  A
C4357      C4364   1.451       .  S
C4358      C4359   1.411       .  A
C4359      C4360   1.409       .  A
C4359      C4362   1.451       .  S
C4360      C4363   1.451       .  S
C4361      N4368   1.157       .  T
C4362      N4367   1.157       .  T
C4363      N4365   1.157       .  T
C4364      N4366   1.157       .  T
